
*** ChampSim Multicore Out-of-Order Simulator ***

Warmup Instructions: 50000000
Simulation Instructions: 50000000
Number of CPUs: 1
LLC sets: 2048
LLC ways: 16
Off-chip DRAM Size: 4096 MB Channels: 1 Width: 64-bit Data Rate: 6400 MT/s
CPU 0 runs ../Ligra/ligra_BFSCC.com-lj.ungraph.gcc_6.3.0_O3.drop_3500M.length_250M.champsimtrace.xz
.xz
CPU 0 Bimodal branch predictor
BTB has LRU replacement policy
ITLB has LRU replacement policy
DTLB has LRU replacement policy
STLB has LRU replacement policy
L1I has LRU replacement policy
CPU 0 L1D - Pythia Preftecher 
L1D has LRU replacement policy
--------- This is L2C prefetcher --------------
L2C has LRU replacement policy
LLC has LRU replacement policy
Heartbeat CPU 0 instructions: 10000002 cycles: 3333345 heartbeat IPC: 2.99999 cumulative IPC: 2.99999 (Simulation time: 0 hr 0 min 24 sec) 
Heartbeat CPU 0 instructions: 20000000 cycles: 6666677 heartbeat IPC: 3 cumulative IPC: 3 (Simulation time: 0 hr 0 min 48 sec) 
Heartbeat CPU 0 instructions: 30000001 cycles: 10000011 heartbeat IPC: 3 cumulative IPC: 3 (Simulation time: 0 hr 1 min 11 sec) 
Heartbeat CPU 0 instructions: 40000001 cycles: 13333345 heartbeat IPC: 3 cumulative IPC: 3 (Simulation time: 0 hr 1 min 35 sec) 
Heartbeat CPU 0 instructions: 50000001 cycles: 16666678 heartbeat IPC: 3 cumulative IPC: 3 (Simulation time: 0 hr 1 min 57 sec) 

Warmup complete CPU 0 instructions: 50000001 cycles: 16666678 (Simulation time: 0 hr 1 min 57 sec) 

Heartbeat CPU 0 instructions: 60000000 cycles: 36063149 heartbeat IPC: 0.515558 cumulative IPC: 0.515558 (Simulation time: 0 hr 2 min 22 sec) 
Heartbeat CPU 0 instructions: 70000000 cycles: 55248676 heartbeat IPC: 0.521226 cumulative IPC: 0.518376 (Simulation time: 0 hr 2 min 47 sec) 
Heartbeat CPU 0 instructions: 80000000 cycles: 74325523 heartbeat IPC: 0.524196 cumulative IPC: 0.520302 (Simulation time: 0 hr 3 min 12 sec) 
Heartbeat CPU 0 instructions: 90000002 cycles: 93460631 heartbeat IPC: 0.5226 cumulative IPC: 0.520874 (Simulation time: 0 hr 3 min 38 sec) 
Heartbeat CPU 0 instructions: 100000001 cycles: 112485000 heartbeat IPC: 0.525642 cumulative IPC: 0.521821 (Simulation time: 0 hr 4 min 2 sec) 
Finished CPU 0 instructions: 50000000 cycles: 95818322 cumulative IPC: 0.521821 (Simulation time: 0 hr 4 min 2 sec) 

ChampSim completed all CPUs

Region of Interest Statistics

CPU 0 cumulative IPC: 0.521821 instructions: 50000000 cycles: 95818322
ITLB TOTAL     ACCESS:    7995032  HIT:    7995032  MISS:          0  HIT %:        100  MISS %:          0   MPKI: 0
ITLB LOAD TRANSLATION ACCESS:    7995032  HIT:    7995032  MISS:          0  HIT %:        100  MISS %:          0   MPKI: 0
ITLB PREFETCH  REQUESTED:          0  ISSUED:          0  USEFUL:          0  USELESS:          0
ITLB USEFUL LOAD PREFETCHES:          0 PREFETCH ISSUED TO LOWER LEVEL:          0  ACCURACY: -nan
ITLB TIMELY PREFETCHES:          0 LATE PREFETCHES: 0 DROPPED PREFETCHES: 0
ITLB PREFETCHES SAME FILL-ORIGIN LEVEL: 0 DIFFERENT FILL-ORIGIN LEVEL: 0
ITLB AVERAGE MISS LATENCY: -nan cycles
ITLB RQ	ACCESS:    7995033	FORWARD:          0	MERGED:          0	TO_CACHE:    7995033

DTLB TOTAL     ACCESS:   10971915  HIT:   10969120  MISS:       2795  HIT %:    99.9745  MISS %:  0.0254741   MPKI: 0.0559
DTLB LOAD TRANSLATION ACCESS:   10971915  HIT:   10969120  MISS:       2795  HIT %:    99.9745  MISS %:  0.0254741   MPKI: 0.0559
DTLB PREFETCH  REQUESTED:          0  ISSUED:          0  USEFUL:          0  USELESS:          0
DTLB USEFUL LOAD PREFETCHES:          0 PREFETCH ISSUED TO LOWER LEVEL:          0  ACCURACY: -nan
DTLB TIMELY PREFETCHES:          0 LATE PREFETCHES: 0 DROPPED PREFETCHES: 0
DTLB PREFETCHES SAME FILL-ORIGIN LEVEL: 0 DIFFERENT FILL-ORIGIN LEVEL: 0
DTLB AVERAGE MISS LATENCY: 145.262 cycles
DTLB RQ	ACCESS:   11010228	FORWARD:          0	MERGED:      34999	TO_CACHE:   10975229

STLB TOTAL     ACCESS:     114051  HIT:     111256  MISS:       2795  HIT %:    97.5493  MISS %:    2.45066   MPKI: 0.0559
STLB LOAD TRANSLATION ACCESS:       2795  HIT:          0  MISS:       2795  HIT %:          0  MISS %:        100   MPKI: 0.0559
STLB TRANSLATION FROM L1D PREFETCHER ACCESS:     111256  HIT:     111256  MISS:          0  HIT %:        100  MISS %:          0   MPKI: 0
STLB PREFETCH  REQUESTED:          0  ISSUED:          0  USEFUL:          0  USELESS:          0
STLB USEFUL LOAD PREFETCHES:          0 PREFETCH ISSUED TO LOWER LEVEL:          0  ACCURACY: -nan
STLB TIMELY PREFETCHES:          0 LATE PREFETCHES: 0 DROPPED PREFETCHES: 0
STLB PREFETCHES SAME FILL-ORIGIN LEVEL: 0 DIFFERENT FILL-ORIGIN LEVEL: 0
STLB AVERAGE MISS LATENCY: 136.262 cycles
STLB RQ	ACCESS:     411352	FORWARD:          0	MERGED:     297301	TO_CACHE:     114051

STLB Hit, L1D data hit: 0
STLB Hit, L2C data hit: 0
STLB Hit, LLC data hit: 0
STLB Hit, LLC data miss: 0
STLB STLB hints to L2: 0
L1D TOTAL     ACCESS:   10497664  HIT:   10318813  MISS:     178851  HIT %:    98.2963  MISS %:    1.70372   MPKI: 3.57702
L1D LOAD      ACCESS:    5242661  HIT:    5224787  MISS:      17874  HIT %:    99.6591  MISS %:   0.340934   MPKI: 0.35748
L1D RFO       ACCESS:    4850012  HIT:    4760578  MISS:      89434  HIT %:     98.156  MISS %:      1.844   MPKI: 1.78868
L1D PREFETCH  ACCESS:     404991  HIT:     333448  MISS:      71543  HIT %:    82.3347  MISS %:    17.6653   MPKI: 1.43086
AGUS PREFETCH L1 MISS: 0
L1D PREFETCH  REQUESTED:     832859  ISSUED:     832859  USEFUL:      71560  USELESS:          0
L1D USEFUL LOAD PREFETCHES:      71560 PREFETCH ISSUED TO LOWER LEVEL:      71731  ACCURACY: 99.7616
L1D TIMELY PREFETCHES:      71560 LATE PREFETCHES: 186 DROPPED PREFETCHES: 0
L1D PREFETCHES SAME FILL-ORIGIN LEVEL: 71731 DIFFERENT FILL-ORIGIN LEVEL: 0
L1D AVERAGE MISS LATENCY: 171.283 cycles
L1D RQ	ACCESS:   10690511	FORWARD:          0	MERGED:    5404078	TO_CACHE:    5286433
L1D WQ	ACCESS:    5723795	FORWARD:          0	MERGED:          0	TO_CACHE:    5723795
L1D PQ	ACCESS:     424302	FORWARD:          0	MERGED:      15745	TO_CACHE:     408557

L1D UNIQUE REGIONS ACCESSED: 0
L1D REGIONS CONFLICTS: 0
L1D Cross Page Prefetch Requests: 0
L1D Same Page Prefetch Requests: 14965107
L1D ROI Sum of L1D PQ occupancy: 5600790
L1D PREFETCHES PUSHED FROM L2C: 0
L1I TOTAL     ACCESS:    7995032  HIT:    7995032  MISS:          0  HIT %:        100  MISS %:          0   MPKI: 0
L1I LOAD      ACCESS:    7995032  HIT:    7995032  MISS:          0  HIT %:        100  MISS %:          0   MPKI: 0
L1I PREFETCH  REQUESTED:          0  ISSUED:          0  USEFUL:          0  USELESS:          0
L1I USEFUL LOAD PREFETCHES:          0 PREFETCH ISSUED TO LOWER LEVEL:          0  ACCURACY: -nan
L1I TIMELY PREFETCHES:          0 LATE PREFETCHES: 0 DROPPED PREFETCHES: 0
L1I PREFETCHES SAME FILL-ORIGIN LEVEL: 0 DIFFERENT FILL-ORIGIN LEVEL: 0
L1I AVERAGE MISS LATENCY: -nan cycles
L1I RQ	ACCESS:   14475899	FORWARD:          0	MERGED:    6480866	TO_CACHE:    7995033

BTB TOTAL     ACCESS:   11447585  HIT:   11447583  MISS:          2  HIT %:        100  MISS %: 1.74709e-05   MPKI: 4e-05
BTB BRANCH_DIRECT_JUMP	ACCESS:          0  HIT:          0  MISS:          0
BTB BRANCH_INDIRECT	ACCESS:          0  HIT:          0  MISS:          0
BTB BRANCH_CONDITIONAL	ACCESS:   11447585  HIT:   11447583  MISS:          2
BTB BRANCH_DIRECT_CALL	ACCESS:          0  HIT:          0  MISS:          0
BTB BRANCH_INDIRECT_CALL	ACCESS:          0  HIT:          0  MISS:          0
BTB BRANCH_RETURN	ACCESS:          0  HIT:          0  MISS:          0
BTB BRANCH_OTHER ACCESS:          0  HIT:          0  MISS:          0

L2C TOTAL     ACCESS:     271075  HIT:      91869  MISS:     179206  HIT %:    33.8906  MISS %:    66.1094   MPKI: 3.58412
L2C LOAD      ACCESS:      17688  HIT:          0  MISS:      17688  HIT %:          0  MISS %:        100   MPKI: 0.35376
L2C DATA LOAD MPKI: 0.35376
L2C INSTRUCTION LOAD MPKI: 0
L2C RFO       ACCESS:      89434  HIT:          0  MISS:      89434  HIT %:          0  MISS %:        100   MPKI: 1.78868
L2C PREFETCH  ACCESS:      71729  HIT:          0  MISS:      71729  HIT %:          0  MISS %:        100   MPKI: 1.43458
AGUS PREFETCH L1 MISS: 0
L2C DATA PREFETCH MPKI: 1.43458
L2C INSTRUCTION PREFETCH MPKI: 0
L2C WRITEBACK ACCESS:      89429  HIT:      89429  MISS:          0  HIT %:        100  MISS %:          0   MPKI: 0
L2C LOAD TRANSLATION ACCESS:       2795  HIT:       2440  MISS:        355  HIT %:    87.2987  MISS %:    12.7013   MPKI: 0.0071
L2C PREFETCH  REQUESTED:          0  ISSUED:          0  USEFUL:          0  USELESS:      72098
L2C USEFUL LOAD PREFETCHES:          0 PREFETCH ISSUED TO LOWER LEVEL:      71731  ACCURACY: 0
L2C TIMELY PREFETCHES:          0 LATE PREFETCHES: 0 DROPPED PREFETCHES: 0
L2C PREFETCHES SAME FILL-ORIGIN LEVEL: 0 DIFFERENT FILL-ORIGIN LEVEL: 0
L2C AVERAGE MISS LATENCY: 156.226 cycles
L2C RQ	ACCESS:     109917	FORWARD:          0	MERGED:          0	TO_CACHE:     109917
L2C WQ	ACCESS:      89429	FORWARD:          0	MERGED:          0	TO_CACHE:      89429
L2C PQ	ACCESS:      71731	FORWARD:          0	MERGED:          0	TO_CACHE:      71731

L2C Instructions Evicting Data 0
L2C Translations Evicting Data 355
L2C Data Evicting Data 178494
L2C Instructions Evicting Instructions 0
L2C Translations Evicting Instructions 0
L2C Data Evicting Instructions 0
L2C Instructions Evicting Translations 0
L2C Translations Evicting Translations 0
L2C Data Evicting Translations 357
L2C Dense regions hint from L2: 0
PSCL5 TOTAL     ACCESS:       2795  HIT:       2795  MISS:          0  HIT %:        100  MISS %:          0   MPKI: 0
PSCL5 LOAD TRANSLATION ACCESS:       2795  HIT:       2795  MISS:          0  HIT %:        100  MISS %:          0   MPKI: 0
PSCL5 PREFETCH  REQUESTED:          0  ISSUED:          0  USEFUL:          0  USELESS:          0
PSCL5 USEFUL LOAD PREFETCHES:          0 PREFETCH ISSUED TO LOWER LEVEL:          0  ACCURACY: -nan
PSCL5 TIMELY PREFETCHES:          0 LATE PREFETCHES: 0 DROPPED PREFETCHES: 0
PSCL5 PREFETCHES SAME FILL-ORIGIN LEVEL: 0 DIFFERENT FILL-ORIGIN LEVEL: 0

PSCL4 TOTAL     ACCESS:       2795  HIT:       2795  MISS:          0  HIT %:        100  MISS %:          0   MPKI: 0
PSCL4 LOAD TRANSLATION ACCESS:       2795  HIT:       2795  MISS:          0  HIT %:        100  MISS %:          0   MPKI: 0
PSCL4 PREFETCH  REQUESTED:          0  ISSUED:          0  USEFUL:          0  USELESS:          0
PSCL4 USEFUL LOAD PREFETCHES:          0 PREFETCH ISSUED TO LOWER LEVEL:          0  ACCURACY: -nan
PSCL4 TIMELY PREFETCHES:          0 LATE PREFETCHES: 0 DROPPED PREFETCHES: 0
PSCL4 PREFETCHES SAME FILL-ORIGIN LEVEL: 0 DIFFERENT FILL-ORIGIN LEVEL: 0

PSCL3 TOTAL     ACCESS:       2795  HIT:       2795  MISS:          0  HIT %:        100  MISS %:          0   MPKI: 0
PSCL3 LOAD TRANSLATION ACCESS:       2795  HIT:       2795  MISS:          0  HIT %:        100  MISS %:          0   MPKI: 0
PSCL3 PREFETCH  REQUESTED:          0  ISSUED:          0  USEFUL:          0  USELESS:          0
PSCL3 USEFUL LOAD PREFETCHES:          0 PREFETCH ISSUED TO LOWER LEVEL:          0  ACCURACY: -nan
PSCL3 TIMELY PREFETCHES:          0 LATE PREFETCHES: 0 DROPPED PREFETCHES: 0
PSCL3 PREFETCHES SAME FILL-ORIGIN LEVEL: 0 DIFFERENT FILL-ORIGIN LEVEL: 0

PSCL2 TOTAL     ACCESS:       2795  HIT:       2789  MISS:          6  HIT %:    99.7853  MISS %:   0.214669   MPKI: 0.00012
PSCL2 LOAD TRANSLATION ACCESS:       2795  HIT:       2789  MISS:          6  HIT %:    99.7853  MISS %:   0.214669   MPKI: 0.00012
PSCL2 PREFETCH  REQUESTED:          0  ISSUED:          0  USEFUL:          0  USELESS:          0
PSCL2 USEFUL LOAD PREFETCHES:          0 PREFETCH ISSUED TO LOWER LEVEL:          0  ACCURACY: -nan
PSCL2 TIMELY PREFETCHES:          0 LATE PREFETCHES: 0 DROPPED PREFETCHES: 0
PSCL2 PREFETCHES SAME FILL-ORIGIN LEVEL: 0 DIFFERENT FILL-ORIGIN LEVEL: 0

LLC TOTAL     ACCESS:     268743  HIT:      89537  MISS:     179206  HIT %:     33.317  MISS %:     66.683   MPKI: 3.58412
LLC LOAD      ACCESS:      17688  HIT:          0  MISS:      17688  HIT %:          0  MISS %:        100   MPKI: 0.35376
LLC RFO       ACCESS:      89434  HIT:          0  MISS:      89434  HIT %:          0  MISS %:        100   MPKI: 1.78868
LLC PREFETCH  ACCESS:      71729  HIT:          0  MISS:      71729  HIT %:          0  MISS %:        100   MPKI: 1.43458
AGUS PREFETCH L1 MISS: 0
LLC WRITEBACK ACCESS:      89537  HIT:      89537  MISS:          0  HIT %:        100  MISS %:          0   MPKI: 0
LLC LOAD TRANSLATION ACCESS:        355  HIT:          0  MISS:        355  HIT %:          0  MISS %:        100   MPKI: 0.0071
LLC PREFETCH  REQUESTED:          0  ISSUED:          0  USEFUL:          0  USELESS:      73515
LLC USEFUL LOAD PREFETCHES:          0 PREFETCH ISSUED TO LOWER LEVEL:      71731  ACCURACY: 0
LLC TIMELY PREFETCHES:          0 LATE PREFETCHES: 0 DROPPED PREFETCHES: 0
LLC PREFETCHES SAME FILL-ORIGIN LEVEL: 0 DIFFERENT FILL-ORIGIN LEVEL: 0
LLC AVERAGE MISS LATENCY: 126.163 cycles
LLC RQ	ACCESS:     107477	FORWARD:          0	MERGED:          0	TO_CACHE:     107477
LLC WQ	ACCESS:      89537	FORWARD:          0	MERGED:          0	TO_CACHE:      89537
LLC PQ	ACCESS:      71731	FORWARD:          0	MERGED:          0	TO_CACHE:      71731

LLC Dense regions hint to LLC: 0

RAW hits: 0
Loads Generated: 10690511
Loads sent to L1D: 10690511
Stores Generated: 5723795
Stores sent to L1D: 5723795
Major fault: 0 Minor fault: 5612
Allocated PAGES: 5612
CPU 0 L1D nextline prefetcher final stats
 Action = 30 : 207024
 Action = 23 : 317276
 Action = 16 : 248434
 Action = 11 : 205906
 Action = 10 : 328967
 Action = 22 : 200840
 Action = 5 : 107619
 Action = 4 : 179862
 Action = 32 : 346971
 Action = -3 : 265403
 Action = 12 : 249765
 Action = -6 : 292439
 Action = 3 : 362747
 Action = 1 : 246446
 Action = -1 : 183152
 Action = 0 : 8695686
 number of times low bandwidth is  12069960
number of times high bandwidth is 0

DRAM Statistics
 CHANNEL 0
 RQ ROW_BUFFER_HIT:      89923  ROW_BUFFER_MISS:      89283
 DBUS_CONGESTED:         70
 WQ ROW_BUFFER_HIT:      10026  ROW_BUFFER_MISS:      79476  FULL:          0

 AVG_CONGESTED_CYCLE: 4
 All warmup complete: 2
Channel 0 Bank busy for read cycles: 0
Channel 0 Bank busy for write cycles: 0
Channel 0
Rank 0
0banks busy for read cycles: 70048829
0banks busy for write cycles: 66888
1banks busy for read cycles: 12899700
1banks busy for write cycles: 9357641
2banks busy for read cycles: 1246241
2banks busy for write cycles: 836811
3banks busy for read cycles: 384314
3banks busy for write cycles: 314580
4banks busy for read cycles: 173369
4banks busy for write cycles: 177960
5banks busy for read cycles: 112634
5banks busy for write cycles: 130175
6banks busy for read cycles: 12800
6banks busy for write cycles: 40334
7banks busy for read cycles: 1369
7banks busy for write cycles: 12697
8banks busy for read cycles: 132
8banks busy for write cycles: 1849

CPU 0 Branch Prediction Accuracy: 93.3866% MPKI: 15.1416 Average ROB Occupancy at Mispredict: 13.1102
Branch types
NOT_BRANCH: 38552411 77.1048%
BRANCH_DIRECT_JUMP: 0 0%
BRANCH_INDIRECT: 0 0%
BRANCH_CONDITIONAL: 11447591 22.8952%
BRANCH_DIRECT_CALL: 0 0%
BRANCH_INDIRECT_CALL: 0 0%
BRANCH_RETURN: 0 0%
BRANCH_OTHER: 0 0%

DRAM PAGES: 1048576
Allocated PAGES: 5612
