
*** ChampSim Multicore Out-of-Order Simulator ***

Warmup Instructions: 50000000
Simulation Instructions: 50000000
Number of CPUs: 1
LLC sets: 2048
LLC ways: 16
Off-chip DRAM Size: 4096 MB Channels: 1 Width: 64-bit Data Rate: 6400 MT/s
CPU 0 runs ../PARSEC/parsec_2.1.vips.simlarge.prebuilt.drop_27250M.length_250M.champsimtrace.xz
.xz
CPU 0 Bimodal branch predictor
BTB has LRU replacement policy
ITLB has LRU replacement policy
DTLB has LRU replacement policy
STLB has LRU replacement policy
L1I has LRU replacement policy
CPU 0 L1D - Pythia Preftecher 
L1D has LRU replacement policy
--------- This is L2C prefetcher --------------
L2C has LRU replacement policy
LLC has LRU replacement policy
Heartbeat CPU 0 instructions: 10000003 cycles: 2708232 heartbeat IPC: 3.69245 cumulative IPC: 3.69245 (Simulation time: 0 hr 0 min 30 sec) 
Heartbeat CPU 0 instructions: 20000003 cycles: 5408949 heartbeat IPC: 3.70272 cumulative IPC: 3.69758 (Simulation time: 0 hr 0 min 59 sec) 
Heartbeat CPU 0 instructions: 30000003 cycles: 8116019 heartbeat IPC: 3.69403 cumulative IPC: 3.69639 (Simulation time: 0 hr 1 min 28 sec) 
Heartbeat CPU 0 instructions: 40000002 cycles: 10823077 heartbeat IPC: 3.69405 cumulative IPC: 3.69581 (Simulation time: 0 hr 1 min 58 sec) 
Heartbeat CPU 0 instructions: 50000002 cycles: 13523479 heartbeat IPC: 3.70315 cumulative IPC: 3.69727 (Simulation time: 0 hr 2 min 26 sec) 

Warmup complete CPU 0 instructions: 50000002 cycles: 13523479 (Simulation time: 0 hr 2 min 26 sec) 

Heartbeat CPU 0 instructions: 60000000 cycles: 24019625 heartbeat IPC: 0.95273 cumulative IPC: 0.95273 (Simulation time: 0 hr 2 min 55 sec) 
Heartbeat CPU 0 instructions: 70000002 cycles: 34650555 heartbeat IPC: 0.940652 cumulative IPC: 0.946653 (Simulation time: 0 hr 3 min 23 sec) 
Heartbeat CPU 0 instructions: 80000000 cycles: 45197422 heartbeat IPC: 0.948149 cumulative IPC: 0.947151 (Simulation time: 0 hr 3 min 51 sec) 
Heartbeat CPU 0 instructions: 90000002 cycles: 55728995 heartbeat IPC: 0.949526 cumulative IPC: 0.947743 (Simulation time: 0 hr 4 min 19 sec) 
Heartbeat CPU 0 instructions: 100000001 cycles: 66222086 heartbeat IPC: 0.953008 cumulative IPC: 0.948792 (Simulation time: 0 hr 4 min 49 sec) 
Finished CPU 0 instructions: 50000001 cycles: 52698609 cumulative IPC: 0.948792 (Simulation time: 0 hr 4 min 49 sec) 

ChampSim completed all CPUs

Region of Interest Statistics

CPU 0 cumulative IPC: 0.948792 instructions: 50000001 cycles: 52698609
ITLB TOTAL     ACCESS:    7594960  HIT:    7594654  MISS:        306  HIT %:     99.996  MISS %: 0.00402899   MPKI: 0.00612
ITLB LOAD TRANSLATION ACCESS:    7594960  HIT:    7594654  MISS:        306  HIT %:     99.996  MISS %: 0.00402899   MPKI: 0.00612
ITLB PREFETCH  REQUESTED:          0  ISSUED:          0  USEFUL:          0  USELESS:          0
ITLB USEFUL LOAD PREFETCHES:          0 PREFETCH ISSUED TO LOWER LEVEL:          0  ACCURACY: -nan
ITLB TIMELY PREFETCHES:          0 LATE PREFETCHES: 0 DROPPED PREFETCHES: 0
ITLB PREFETCHES SAME FILL-ORIGIN LEVEL: 0 DIFFERENT FILL-ORIGIN LEVEL: 0
ITLB AVERAGE MISS LATENCY: 9 cycles
ITLB RQ	ACCESS:    9570048	FORWARD:          0	MERGED:    1974977	TO_CACHE:    7595071

DTLB TOTAL     ACCESS:    7478601  HIT:    7472123  MISS:       6478  HIT %:    99.9134  MISS %:  0.0866205   MPKI: 0.12956
DTLB LOAD TRANSLATION ACCESS:    7478601  HIT:    7472123  MISS:       6478  HIT %:    99.9134  MISS %:  0.0866205   MPKI: 0.12956
DTLB PREFETCH  REQUESTED:          0  ISSUED:          0  USEFUL:          0  USELESS:          0
DTLB USEFUL LOAD PREFETCHES:          0 PREFETCH ISSUED TO LOWER LEVEL:          0  ACCURACY: -nan
DTLB TIMELY PREFETCHES:          0 LATE PREFETCHES: 0 DROPPED PREFETCHES: 0
DTLB PREFETCHES SAME FILL-ORIGIN LEVEL: 0 DIFFERENT FILL-ORIGIN LEVEL: 0
DTLB AVERAGE MISS LATENCY: 11.0105 cycles
DTLB RQ	ACCESS:    8892075	FORWARD:          0	MERGED:    1412517	TO_CACHE:    7479558

STLB TOTAL     ACCESS:    3268435  HIT:    3268375  MISS:         60  HIT %:    99.9982  MISS %: 0.00183574   MPKI: 0.0012
STLB LOAD TRANSLATION ACCESS:       6784  HIT:       6724  MISS:         60  HIT %:    99.1156  MISS %:   0.884434   MPKI: 0.0012
STLB TRANSLATION FROM L1D PREFETCHER ACCESS:    3261651  HIT:    3261651  MISS:          0  HIT %:        100  MISS %:          0   MPKI: 0
STLB PREFETCH  REQUESTED:          0  ISSUED:          0  USEFUL:          0  USELESS:          0
STLB USEFUL LOAD PREFETCHES:          0 PREFETCH ISSUED TO LOWER LEVEL:          0  ACCURACY: -nan
STLB TIMELY PREFETCHES:          0 LATE PREFETCHES: 0 DROPPED PREFETCHES: 0
STLB PREFETCHES SAME FILL-ORIGIN LEVEL: 0 DIFFERENT FILL-ORIGIN LEVEL: 0
STLB AVERAGE MISS LATENCY: 209.667 cycles
STLB RQ	ACCESS:    7038407	FORWARD:          0	MERGED:    3769971	TO_CACHE:    3268436

STLB Hit, L1D data hit: 0
STLB Hit, L2C data hit: 0
STLB Hit, LLC data hit: 0
STLB Hit, LLC data miss: 0
STLB STLB hints to L2: 0
L1D TOTAL     ACCESS:   15769393  HIT:   15385441  MISS:     383952  HIT %:    97.5652  MISS %:    2.43479   MPKI: 7.67904
L1D LOAD      ACCESS:    6379364  HIT:    6283382  MISS:      95982  HIT %:    98.4954  MISS %:    1.50457   MPKI: 1.91964
L1D RFO       ACCESS:    2423206  HIT:    2384018  MISS:      39188  HIT %:    98.3828  MISS %:     1.6172   MPKI: 0.78376
L1D PREFETCH  ACCESS:    6966823  HIT:    6718041  MISS:     248782  HIT %:     96.429  MISS %:    3.57095   MPKI: 4.97564
AGUS PREFETCH L1 MISS: 0
L1D PREFETCH  REQUESTED:   14669928  ISSUED:   14635980  USEFUL:     110936  USELESS:     137934
L1D USEFUL LOAD PREFETCHES:     110936 PREFETCH ISSUED TO LOWER LEVEL:     248959  ACCURACY: 44.5599
L1D TIMELY PREFETCHES:     110936 LATE PREFETCHES: 175 DROPPED PREFETCHES: 0
L1D PREFETCHES SAME FILL-ORIGIN LEVEL: 248959 DIFFERENT FILL-ORIGIN LEVEL: 0
L1D AVERAGE MISS LATENCY: 31.5333 cycles
L1D RQ	ACCESS:   10764674	FORWARD:          0	MERGED:    4349701	TO_CACHE:    6384625
L1D WQ	ACCESS:    2596603	FORWARD:      32039	MERGED:      89153	TO_CACHE:    2507450
L1D PQ	ACCESS:    7604357	FORWARD:          0	MERGED:     571043	TO_CACHE:    7031623

L1D UNIQUE REGIONS ACCESSED: 0
L1D REGIONS CONFLICTS: 0
L1D Cross Page Prefetch Requests: 0
L1D Same Page Prefetch Requests: 15577724
L1D ROI Sum of L1D PQ occupancy: 94257910
L1D PREFETCHES PUSHED FROM L2C: 0
L1I TOTAL     ACCESS:    9569484  HIT:    9568033  MISS:       1451  HIT %:    99.9848  MISS %:  0.0151628   MPKI: 0.02902
L1I LOAD      ACCESS:    9569484  HIT:    9568033  MISS:       1451  HIT %:    99.9848  MISS %:  0.0151628   MPKI: 0.02902
L1I PREFETCH  REQUESTED:          0  ISSUED:          0  USEFUL:          0  USELESS:          0
L1I USEFUL LOAD PREFETCHES:          0 PREFETCH ISSUED TO LOWER LEVEL:          0  ACCURACY: -nan
L1I TIMELY PREFETCHES:          0 LATE PREFETCHES: 0 DROPPED PREFETCHES: 0
L1I PREFETCHES SAME FILL-ORIGIN LEVEL: 0 DIFFERENT FILL-ORIGIN LEVEL: 0
L1I AVERAGE MISS LATENCY: 52.9469 cycles
L1I RQ	ACCESS:   12739546	FORWARD:          0	MERGED:    3169498	TO_CACHE:    9570048

BTB TOTAL     ACCESS:    3149172  HIT:    3144853  MISS:       4327  HIT %:    99.8629  MISS %:   0.137401   MPKI: 0.08654
BTB BRANCH_DIRECT_JUMP	ACCESS:     559562  HIT:     559361  MISS:        201
BTB BRANCH_INDIRECT	ACCESS:     109553  HIT:     109451  MISS:        102
BTB BRANCH_CONDITIONAL	ACCESS:    2449845  HIT:    2449465  MISS:        380
BTB BRANCH_DIRECT_CALL	ACCESS:       6737  HIT:       6533  MISS:        204
BTB BRANCH_INDIRECT_CALL	ACCESS:       8390  HIT:       8238  MISS:        152
BTB BRANCH_RETURN	ACCESS:      15078  HIT:      11790  MISS:       3288
BTB BRANCH_OTHER ACCESS:          7  HIT:         15  MISS:          0

L2C TOTAL     ACCESS:     466537  HIT:     322630  MISS:     143907  HIT %:    69.1542  MISS %:    30.8458   MPKI: 2.87814
L2C LOAD      ACCESS:      97253  HIT:      69819  MISS:      27434  HIT %:    71.7911  MISS %:    28.2089   MPKI: 0.54868
L2C DATA LOAD MPKI: 0.51966
L2C INSTRUCTION LOAD MPKI: 0.02902
L2C RFO       ACCESS:      39185  HIT:        919  MISS:      38266  HIT %:    2.34529  MISS %:    97.6547   MPKI: 0.76532
L2C PREFETCH  ACCESS:     248954  HIT:     170812  MISS:      78142  HIT %:    68.6119  MISS %:    31.3881   MPKI: 1.56284
AGUS PREFETCH L1 MISS: 0
L2C DATA PREFETCH MPKI: 1.56284
L2C INSTRUCTION PREFETCH MPKI: 0
L2C WRITEBACK ACCESS:      81085  HIT:      81079  MISS:          6  HIT %:    99.9926  MISS %: 0.00739964   MPKI: 0.00012
L2C LOAD TRANSLATION ACCESS:         60  HIT:          1  MISS:         59  HIT %:    1.66667  MISS %:    98.3333   MPKI: 0.00118
L2C PREFETCH  REQUESTED:          0  ISSUED:          0  USEFUL:      10775  USELESS:      67726
L2C USEFUL LOAD PREFETCHES:      10775 PREFETCH ISSUED TO LOWER LEVEL:      78142  ACCURACY: 13.789
L2C TIMELY PREFETCHES:      10775 LATE PREFETCHES: 0 DROPPED PREFETCHES: 0
L2C PREFETCHES SAME FILL-ORIGIN LEVEL: 0 DIFFERENT FILL-ORIGIN LEVEL: 0
L2C AVERAGE MISS LATENCY: 43.8583 cycles
L2C RQ	ACCESS:     136504	FORWARD:          0	MERGED:          0	TO_CACHE:     136498
L2C WQ	ACCESS:      81085	FORWARD:         11	MERGED:          0	TO_CACHE:      81085
L2C PQ	ACCESS:     248959	FORWARD:          0	MERGED:          0	TO_CACHE:     248954

L2C Instructions Evicting Data 1418
L2C Translations Evicting Data 59
L2C Data Evicting Data 140913
L2C Instructions Evicting Instructions 30
L2C Translations Evicting Instructions 0
L2C Data Evicting Instructions 1421
L2C Instructions Evicting Translations 3
L2C Translations Evicting Translations 0
L2C Data Evicting Translations 57
L2C Dense regions hint from L2: 0
PSCL5 TOTAL     ACCESS:         60  HIT:         60  MISS:          0  HIT %:        100  MISS %:          0   MPKI: 0
PSCL5 LOAD TRANSLATION ACCESS:         60  HIT:         60  MISS:          0  HIT %:        100  MISS %:          0   MPKI: 0
PSCL5 PREFETCH  REQUESTED:          0  ISSUED:          0  USEFUL:          0  USELESS:          0
PSCL5 USEFUL LOAD PREFETCHES:          0 PREFETCH ISSUED TO LOWER LEVEL:          0  ACCURACY: -nan
PSCL5 TIMELY PREFETCHES:          0 LATE PREFETCHES: 0 DROPPED PREFETCHES: 0
PSCL5 PREFETCHES SAME FILL-ORIGIN LEVEL: 0 DIFFERENT FILL-ORIGIN LEVEL: 0

PSCL4 TOTAL     ACCESS:         60  HIT:         60  MISS:          0  HIT %:        100  MISS %:          0   MPKI: 0
PSCL4 LOAD TRANSLATION ACCESS:         60  HIT:         60  MISS:          0  HIT %:        100  MISS %:          0   MPKI: 0
PSCL4 PREFETCH  REQUESTED:          0  ISSUED:          0  USEFUL:          0  USELESS:          0
PSCL4 USEFUL LOAD PREFETCHES:          0 PREFETCH ISSUED TO LOWER LEVEL:          0  ACCURACY: -nan
PSCL4 TIMELY PREFETCHES:          0 LATE PREFETCHES: 0 DROPPED PREFETCHES: 0
PSCL4 PREFETCHES SAME FILL-ORIGIN LEVEL: 0 DIFFERENT FILL-ORIGIN LEVEL: 0

PSCL3 TOTAL     ACCESS:         60  HIT:         60  MISS:          0  HIT %:        100  MISS %:          0   MPKI: 0
PSCL3 LOAD TRANSLATION ACCESS:         60  HIT:         60  MISS:          0  HIT %:        100  MISS %:          0   MPKI: 0
PSCL3 PREFETCH  REQUESTED:          0  ISSUED:          0  USEFUL:          0  USELESS:          0
PSCL3 USEFUL LOAD PREFETCHES:          0 PREFETCH ISSUED TO LOWER LEVEL:          0  ACCURACY: -nan
PSCL3 TIMELY PREFETCHES:          0 LATE PREFETCHES: 0 DROPPED PREFETCHES: 0
PSCL3 PREFETCHES SAME FILL-ORIGIN LEVEL: 0 DIFFERENT FILL-ORIGIN LEVEL: 0

PSCL2 TOTAL     ACCESS:         60  HIT:         60  MISS:          0  HIT %:        100  MISS %:          0   MPKI: 0
PSCL2 LOAD TRANSLATION ACCESS:         60  HIT:         60  MISS:          0  HIT %:        100  MISS %:          0   MPKI: 0
PSCL2 PREFETCH  REQUESTED:          0  ISSUED:          0  USEFUL:          0  USELESS:          0
PSCL2 USEFUL LOAD PREFETCHES:          0 PREFETCH ISSUED TO LOWER LEVEL:          0  ACCURACY: -nan
PSCL2 TIMELY PREFETCHES:          0 LATE PREFETCHES: 0 DROPPED PREFETCHES: 0
PSCL2 PREFETCHES SAME FILL-ORIGIN LEVEL: 0 DIFFERENT FILL-ORIGIN LEVEL: 0

LLC TOTAL     ACCESS:     223785  HIT:     210143  MISS:      13642  HIT %:     93.904  MISS %:    6.09603   MPKI: 0.27284
LLC LOAD      ACCESS:      27434  HIT:      26192  MISS:       1242  HIT %:    95.4728  MISS %:    4.52723   MPKI: 0.02484
LLC RFO       ACCESS:      38266  HIT:      34887  MISS:       3379  HIT %:    91.1697  MISS %:    8.83029   MPKI: 0.06758
LLC PREFETCH  ACCESS:      78142  HIT:      69147  MISS:       8995  HIT %:    88.4889  MISS %:    11.5111   MPKI: 0.1799
AGUS PREFETCH L1 MISS: 0
LLC WRITEBACK ACCESS:      79884  HIT:      79883  MISS:          1  HIT %:    99.9987  MISS %: 0.00125182   MPKI: 2e-05
LLC LOAD TRANSLATION ACCESS:         59  HIT:         34  MISS:         25  HIT %:    57.6271  MISS %:    42.3729   MPKI: 0.0005
LLC PREFETCH  REQUESTED:          0  ISSUED:          0  USEFUL:       3124  USELESS:       7456
LLC USEFUL LOAD PREFETCHES:       3124 PREFETCH ISSUED TO LOWER LEVEL:       8995  ACCURACY: 34.7304
LLC TIMELY PREFETCHES:       3124 LATE PREFETCHES: 0 DROPPED PREFETCHES: 0
LLC PREFETCHES SAME FILL-ORIGIN LEVEL: 0 DIFFERENT FILL-ORIGIN LEVEL: 0
LLC AVERAGE MISS LATENCY: 146.026 cycles
LLC RQ	ACCESS:      65759	FORWARD:          0	MERGED:          0	TO_CACHE:      65759
LLC WQ	ACCESS:      79884	FORWARD:          0	MERGED:          0	TO_CACHE:      79884
LLC PQ	ACCESS:      78142	FORWARD:          0	MERGED:          0	TO_CACHE:      78142

LLC Dense regions hint to LLC: 0

RAW hits: 646763
Loads Generated: 11411439
Loads sent to L1D: 10764674
Stores Generated: 2596590
Stores sent to L1D: 2596603
Major fault: 0 Minor fault: 821
Allocated PAGES: 821
CPU 0 L1D nextline prefetcher final stats
 Action = 30 : 1662637
 Action = 23 : 913960
 Action = 16 : 517885
 Action = 11 : 303099
 Action = 10 : 243351
 Action = 22 : 990056
 Action = 5 : 179634
 Action = 4 : 202107
 Action = 32 : 2270494
 Action = -3 : 304069
 Action = 12 : 242558
 Action = -6 : 459188
 Action = 3 : 169500
 Action = 1 : 122672
 Action = -1 : 149342
 Action = 0 : 4557289
 number of times low bandwidth is  6774938
number of times high bandwidth is 0

DRAM Statistics
 CHANNEL 0
 RQ ROW_BUFFER_HIT:       4581  ROW_BUFFER_MISS:       9060
 DBUS_CONGESTED:         30
 WQ ROW_BUFFER_HIT:        518  ROW_BUFFER_MISS:       4438  FULL:          0

 AVG_CONGESTED_CYCLE: 5
 All warmup complete: 2
Channel 0 Bank busy for read cycles: 0
Channel 0 Bank busy for write cycles: 0
Channel 0
Rank 0
0banks busy for read cycles: 50931334
0banks busy for write cycles: 3417
1banks busy for read cycles: 915228
1banks busy for write cycles: 469883
2banks busy for read cycles: 156011
2banks busy for write cycles: 73392
3banks busy for read cycles: 59005
3banks busy for write cycles: 26878
4banks busy for read cycles: 24872
4banks busy for write cycles: 12039
5banks busy for read cycles: 9100
5banks busy for write cycles: 5041
6banks busy for read cycles: 3590
6banks busy for write cycles: 4321
7banks busy for read cycles: 1970
7banks busy for write cycles: 1823
8banks busy for read cycles: 462
8banks busy for write cycles: 244

CPU 0 Branch Prediction Accuracy: 98.3408% MPKI: 1.82892 Average ROB Occupancy at Mispredict: 37.4898
Branch types
NOT_BRANCH: 44488427 88.9769%
BRANCH_DIRECT_JUMP: 559562 1.11912%
BRANCH_INDIRECT: 109553 0.219106%
BRANCH_CONDITIONAL: 4811942 9.62388%
BRANCH_DIRECT_CALL: 6737 0.013474%
BRANCH_INDIRECT_CALL: 8390 0.01678%
BRANCH_RETURN: 15078 0.030156%
BRANCH_OTHER: 12 2.4e-05%

DRAM PAGES: 1048576
Allocated PAGES: 821
