
*** ChampSim Multicore Out-of-Order Simulator ***

Warmup Instructions: 50000000
Simulation Instructions: 50000000
Number of CPUs: 1
LLC sets: 2048
LLC ways: 16
Off-chip DRAM Size: 4096 MB Channels: 1 Width: 64-bit Data Rate: 6400 MT/s
CPU 0 runs ../PARSEC/parsec_2.1.canneal.simlarge.prebuilt.drop_1250M.length_250M.champsimtrace.xz
.xz
CPU 0 Bimodal branch predictor
BTB has LRU replacement policy
ITLB has LRU replacement policy
DTLB has LRU replacement policy
STLB has LRU replacement policy
L1I has LRU replacement policy
CPU 0 L1D - Pythia Preftecher 
L1D has LRU replacement policy
--------- This is L2C prefetcher --------------
L2C has LRU replacement policy
LLC has LRU replacement policy
Heartbeat CPU 0 instructions: 10000002 cycles: 3135080 heartbeat IPC: 3.18971 cumulative IPC: 3.18971 (Simulation time: 0 hr 0 min 44 sec) 
Heartbeat CPU 0 instructions: 20000001 cycles: 6274331 heartbeat IPC: 3.18547 cumulative IPC: 3.18759 (Simulation time: 0 hr 1 min 30 sec) 
Heartbeat CPU 0 instructions: 30000003 cycles: 9416941 heartbeat IPC: 3.18207 cumulative IPC: 3.18575 (Simulation time: 0 hr 2 min 16 sec) 
Heartbeat CPU 0 instructions: 40000002 cycles: 12561121 heartbeat IPC: 3.18048 cumulative IPC: 3.18443 (Simulation time: 0 hr 3 min 0 sec) 
Heartbeat CPU 0 instructions: 50000001 cycles: 15707937 heartbeat IPC: 3.17781 cumulative IPC: 3.1831 (Simulation time: 0 hr 3 min 45 sec) 

Warmup complete CPU 0 instructions: 50000001 cycles: 15707937 (Simulation time: 0 hr 3 min 45 sec) 

Heartbeat CPU 0 instructions: 60000001 cycles: 59123874 heartbeat IPC: 0.23033 cumulative IPC: 0.23033 (Simulation time: 0 hr 4 min 42 sec) 
Heartbeat CPU 0 instructions: 70000000 cycles: 102565807 heartbeat IPC: 0.230192 cumulative IPC: 0.230261 (Simulation time: 0 hr 5 min 38 sec) 
Heartbeat CPU 0 instructions: 80000000 cycles: 146410517 heartbeat IPC: 0.228078 cumulative IPC: 0.229529 (Simulation time: 0 hr 6 min 36 sec) 
Heartbeat CPU 0 instructions: 90000000 cycles: 190027663 heartbeat IPC: 0.229268 cumulative IPC: 0.229463 (Simulation time: 0 hr 7 min 35 sec) 
Heartbeat CPU 0 instructions: 100000000 cycles: 233889908 heartbeat IPC: 0.227986 cumulative IPC: 0.229167 (Simulation time: 0 hr 8 min 32 sec) 
Finished CPU 0 instructions: 50000001 cycles: 218181972 cumulative IPC: 0.229167 (Simulation time: 0 hr 8 min 32 sec) 

ChampSim completed all CPUs

Region of Interest Statistics

CPU 0 cumulative IPC: 0.229167 instructions: 50000001 cycles: 218181972
ITLB TOTAL     ACCESS:    8686438  HIT:    8686383  MISS:         55  HIT %:    99.9994  MISS %: 0.000633171   MPKI: 0.0011
ITLB LOAD TRANSLATION ACCESS:    8686438  HIT:    8686383  MISS:         55  HIT %:    99.9994  MISS %: 0.000633171   MPKI: 0.0011
ITLB PREFETCH  REQUESTED:          0  ISSUED:          0  USEFUL:          0  USELESS:          0
ITLB USEFUL LOAD PREFETCHES:          0 PREFETCH ISSUED TO LOWER LEVEL:          0  ACCURACY: -nan
ITLB TIMELY PREFETCHES:          0 LATE PREFETCHES: 0 DROPPED PREFETCHES: 0
ITLB PREFETCHES SAME FILL-ORIGIN LEVEL: 0 DIFFERENT FILL-ORIGIN LEVEL: 0
ITLB AVERAGE MISS LATENCY: 263.455 cycles
ITLB RQ	ACCESS:    9842213	FORWARD:          0	MERGED:    1155770	TO_CACHE:    8686443

DTLB TOTAL     ACCESS:   14316688  HIT:   13887114  MISS:     429574  HIT %:    96.9995  MISS %:    3.00051   MPKI: 8.59148
DTLB LOAD TRANSLATION ACCESS:   14316688  HIT:   13887114  MISS:     429574  HIT %:    96.9995  MISS %:    3.00051   MPKI: 8.59148
DTLB PREFETCH  REQUESTED:          0  ISSUED:          0  USEFUL:          0  USELESS:          0
DTLB USEFUL LOAD PREFETCHES:          0 PREFETCH ISSUED TO LOWER LEVEL:          0  ACCURACY: -nan
DTLB TIMELY PREFETCHES:          0 LATE PREFETCHES: 0 DROPPED PREFETCHES: 0
DTLB PREFETCHES SAME FILL-ORIGIN LEVEL: 0 DIFFERENT FILL-ORIGIN LEVEL: 0
DTLB AVERAGE MISS LATENCY: 51.4949 cycles
DTLB RQ	ACCESS:   16537865	FORWARD:          0	MERGED:    2206644	TO_CACHE:   14331221

STLB TOTAL     ACCESS:    9521827  HIT:    9373399  MISS:     148428  HIT %:    98.4412  MISS %:    1.55882   MPKI: 2.96856
STLB LOAD TRANSLATION ACCESS:     429629  HIT:     281201  MISS:     148428  HIT %:    65.4521  MISS %:    34.5479   MPKI: 2.96856
STLB TRANSLATION FROM L1D PREFETCHER ACCESS:    9092198  HIT:    9092198  MISS:          0  HIT %:        100  MISS %:          0   MPKI: 0
STLB PREFETCH  REQUESTED:          0  ISSUED:          0  USEFUL:          0  USELESS:          0
STLB USEFUL LOAD PREFETCHES:          0 PREFETCH ISSUED TO LOWER LEVEL:          0  ACCURACY: -nan
STLB TIMELY PREFETCHES:          0 LATE PREFETCHES: 0 DROPPED PREFETCHES: 0
STLB PREFETCHES SAME FILL-ORIGIN LEVEL: 0 DIFFERENT FILL-ORIGIN LEVEL: 0
STLB AVERAGE MISS LATENCY: 123.043 cycles
STLB RQ	ACCESS:   24903560	FORWARD:          0	MERGED:   15381733	TO_CACHE:    9521827

STLB Hit, L1D data hit: 0
STLB Hit, L2C data hit: 0
STLB Hit, LLC data hit: 0
STLB Hit, LLC data miss: 0
STLB STLB hints to L2: 0
L1D TOTAL     ACCESS:   39762846  HIT:   33175017  MISS:    6587829  HIT %:    83.4322  MISS %:    16.5678   MPKI: 131.757
L1D LOAD      ACCESS:   11113446  HIT:   10161390  MISS:     952056  HIT %:    91.4333  MISS %:     8.5667   MPKI: 19.0411
L1D RFO       ACCESS:    5387846  HIT:    5372314  MISS:      15532  HIT %:    99.7117  MISS %:   0.288278   MPKI: 0.31064
L1D PREFETCH  ACCESS:   23261554  HIT:   17641313  MISS:    5620241  HIT %:    75.8389  MISS %:    24.1611   MPKI: 112.405
AGUS PREFETCH L1 MISS: 0
L1D PREFETCH  REQUESTED:   50645541  ISSUED:   49574098  USEFUL:      84600  USELESS:    5535543
L1D USEFUL LOAD PREFETCHES:      84600 PREFETCH ISSUED TO LOWER LEVEL:    5626137  ACCURACY: 1.5037
L1D TIMELY PREFETCHES:      84600 LATE PREFETCHES: 5866 DROPPED PREFETCHES: 0
L1D PREFETCHES SAME FILL-ORIGIN LEVEL: 5626137 DIFFERENT FILL-ORIGIN LEVEL: 0
L1D AVERAGE MISS LATENCY: 109.367 cycles
L1D RQ	ACCESS:   13633640	FORWARD:          0	MERGED:    2295842	TO_CACHE:   11134412
L1D WQ	ACCESS:    5485191	FORWARD:     212569	MERGED:      81738	TO_CACHE:    5403453
L1D PQ	ACCESS:   25100167	FORWARD:          0	MERGED:     617053	TO_CACHE:   24473931

L1D UNIQUE REGIONS ACCESSED: 0
L1D REGIONS CONFLICTS: 0
L1D Cross Page Prefetch Requests: 0
L1D Same Page Prefetch Requests: 38969246
L1D ROI Sum of L1D PQ occupancy: 384275756
L1D PREFETCHES PUSHED FROM L2C: 0
L1I TOTAL     ACCESS:    9839194  HIT:    9831009  MISS:       8185  HIT %:    99.9168  MISS %:  0.0831877   MPKI: 0.1637
L1I LOAD      ACCESS:    9839194  HIT:    9831009  MISS:       8185  HIT %:    99.9168  MISS %:  0.0831877   MPKI: 0.1637
L1I PREFETCH  REQUESTED:          0  ISSUED:          0  USEFUL:          0  USELESS:          0
L1I USEFUL LOAD PREFETCHES:          0 PREFETCH ISSUED TO LOWER LEVEL:          0  ACCURACY: -nan
L1I TIMELY PREFETCHES:          0 LATE PREFETCHES: 0 DROPPED PREFETCHES: 0
L1I PREFETCHES SAME FILL-ORIGIN LEVEL: 0 DIFFERENT FILL-ORIGIN LEVEL: 0
L1I AVERAGE MISS LATENCY: 23.3431 cycles
L1I RQ	ACCESS:   14016399	FORWARD:          0	MERGED:    4174186	TO_CACHE:    9842213

BTB TOTAL     ACCESS:    7036590  HIT:    6876206  MISS:     160384  HIT %:    97.7207  MISS %:    2.27929   MPKI: 3.20768
BTB BRANCH_DIRECT_JUMP	ACCESS:     998904  HIT:     998829  MISS:         75
BTB BRANCH_INDIRECT	ACCESS:      31272  HIT:      26425  MISS:       4847
BTB BRANCH_CONDITIONAL	ACCESS:    4353040  HIT:    4352865  MISS:        175
BTB BRANCH_DIRECT_CALL	ACCESS:     795827  HIT:     795766  MISS:         61
BTB BRANCH_INDIRECT_CALL	ACCESS:      30862  HIT:      30855  MISS:          7
BTB BRANCH_RETURN	ACCESS:     826685  HIT:     671466  MISS:     155219
BTB BRANCH_OTHER ACCESS:          0  HIT:          0  MISS:          0

L2C TOTAL     ACCESS:    6884058  HIT:    3127459  MISS:    3756599  HIT %:    45.4305  MISS %:    54.5695   MPKI: 75.132
L2C LOAD      ACCESS:     954350  HIT:     434027  MISS:     520323  HIT %:    45.4788  MISS %:    54.5212   MPKI: 10.4065
L2C DATA LOAD MPKI: 10.3919
L2C INSTRUCTION LOAD MPKI: 0.01456
L2C RFO       ACCESS:      15473  HIT:      12585  MISS:       2888  HIT %:    81.3352  MISS %:    18.6648   MPKI: 0.05776
L2C PREFETCH  ACCESS:    5626119  HIT:    2511838  MISS:    3114281  HIT %:     44.646  MISS %:     55.354   MPKI: 62.2856
AGUS PREFETCH L1 MISS: 0
L2C DATA PREFETCH MPKI: 62.2856
L2C INSTRUCTION PREFETCH MPKI: 0
L2C WRITEBACK ACCESS:     134599  HIT:     131374  MISS:       3225  HIT %:     97.604  MISS %:    2.39601   MPKI: 0.0645
L2C LOAD TRANSLATION ACCESS:     153517  HIT:      37635  MISS:     115882  HIT %:    24.5152  MISS %:    75.4848   MPKI: 2.31764
L2C PREFETCH  REQUESTED:          0  ISSUED:          0  USEFUL:      48384  USELESS:    3064884
L2C USEFUL LOAD PREFETCHES:      48384 PREFETCH ISSUED TO LOWER LEVEL:    3114280  ACCURACY: 1.55362
L2C TIMELY PREFETCHES:      48384 LATE PREFETCHES: 0 DROPPED PREFETCHES: 0
L2C PREFETCHES SAME FILL-ORIGIN LEVEL: 0 DIFFERENT FILL-ORIGIN LEVEL: 0
L2C AVERAGE MISS LATENCY: 168.802 cycles
L2C RQ	ACCESS:    1123391	FORWARD:          0	MERGED:          0	TO_CACHE:    1123340
L2C WQ	ACCESS:     134599	FORWARD:         71	MERGED:          0	TO_CACHE:     134599
L2C PQ	ACCESS:    5626137	FORWARD:          0	MERGED:          0	TO_CACHE:    5626117

L2C Instructions Evicting Data 669
L2C Translations Evicting Data 110282
L2C Data Evicting Data 3525734
L2C Instructions Evicting Instructions 31
L2C Translations Evicting Instructions 19
L2C Data Evicting Instructions 678
L2C Instructions Evicting Translations 28
L2C Translations Evicting Translations 5581
L2C Data Evicting Translations 110352
L2C Dense regions hint from L2: 0
PSCL5 TOTAL     ACCESS:     148428  HIT:     148428  MISS:          0  HIT %:        100  MISS %:          0   MPKI: 0
PSCL5 LOAD TRANSLATION ACCESS:     148428  HIT:     148428  MISS:          0  HIT %:        100  MISS %:          0   MPKI: 0
PSCL5 PREFETCH  REQUESTED:          0  ISSUED:          0  USEFUL:          0  USELESS:          0
PSCL5 USEFUL LOAD PREFETCHES:          0 PREFETCH ISSUED TO LOWER LEVEL:          0  ACCURACY: -nan
PSCL5 TIMELY PREFETCHES:          0 LATE PREFETCHES: 0 DROPPED PREFETCHES: 0
PSCL5 PREFETCHES SAME FILL-ORIGIN LEVEL: 0 DIFFERENT FILL-ORIGIN LEVEL: 0

PSCL4 TOTAL     ACCESS:     148428  HIT:     148428  MISS:          0  HIT %:        100  MISS %:          0   MPKI: 0
PSCL4 LOAD TRANSLATION ACCESS:     148428  HIT:     148428  MISS:          0  HIT %:        100  MISS %:          0   MPKI: 0
PSCL4 PREFETCH  REQUESTED:          0  ISSUED:          0  USEFUL:          0  USELESS:          0
PSCL4 USEFUL LOAD PREFETCHES:          0 PREFETCH ISSUED TO LOWER LEVEL:          0  ACCURACY: -nan
PSCL4 TIMELY PREFETCHES:          0 LATE PREFETCHES: 0 DROPPED PREFETCHES: 0
PSCL4 PREFETCHES SAME FILL-ORIGIN LEVEL: 0 DIFFERENT FILL-ORIGIN LEVEL: 0

PSCL3 TOTAL     ACCESS:     148428  HIT:     148428  MISS:          0  HIT %:        100  MISS %:          0   MPKI: 0
PSCL3 LOAD TRANSLATION ACCESS:     148428  HIT:     148428  MISS:          0  HIT %:        100  MISS %:          0   MPKI: 0
PSCL3 PREFETCH  REQUESTED:          0  ISSUED:          0  USEFUL:          0  USELESS:          0
PSCL3 USEFUL LOAD PREFETCHES:          0 PREFETCH ISSUED TO LOWER LEVEL:          0  ACCURACY: -nan
PSCL3 TIMELY PREFETCHES:          0 LATE PREFETCHES: 0 DROPPED PREFETCHES: 0
PSCL3 PREFETCHES SAME FILL-ORIGIN LEVEL: 0 DIFFERENT FILL-ORIGIN LEVEL: 0

PSCL2 TOTAL     ACCESS:     148428  HIT:     143338  MISS:       5090  HIT %:    96.5707  MISS %:    3.42927   MPKI: 0.1018
PSCL2 LOAD TRANSLATION ACCESS:     148428  HIT:     143338  MISS:       5090  HIT %:    96.5707  MISS %:    3.42927   MPKI: 0.1018
PSCL2 PREFETCH  REQUESTED:          0  ISSUED:          0  USEFUL:          0  USELESS:          0
PSCL2 USEFUL LOAD PREFETCHES:          0 PREFETCH ISSUED TO LOWER LEVEL:          0  ACCURACY: -nan
PSCL2 TIMELY PREFETCHES:          0 LATE PREFETCHES: 0 DROPPED PREFETCHES: 0
PSCL2 PREFETCHES SAME FILL-ORIGIN LEVEL: 0 DIFFERENT FILL-ORIGIN LEVEL: 0

LLC TOTAL     ACCESS:    3848032  HIT:     952198  MISS:    2895834  HIT %:    24.7451  MISS %:    75.2549   MPKI: 57.9167
LLC LOAD      ACCESS:     520323  HIT:     120169  MISS:     400154  HIT %:    23.0951  MISS %:    76.9049   MPKI: 8.00308
LLC RFO       ACCESS:       2888  HIT:         71  MISS:       2817  HIT %:    2.45845  MISS %:    97.5416   MPKI: 0.05634
LLC PREFETCH  ACCESS:    3114281  HIT:     683335  MISS:    2430946  HIT %:     21.942  MISS %:     78.058   MPKI: 48.6189
AGUS PREFETCH L1 MISS: 0
LLC WRITEBACK ACCESS:      94658  HIT:      93230  MISS:       1428  HIT %:    98.4914  MISS %:    1.50859   MPKI: 0.02856
LLC LOAD TRANSLATION ACCESS:     115882  HIT:      55393  MISS:      60489  HIT %:    47.8012  MISS %:    52.1988   MPKI: 1.20978
LLC PREFETCH  REQUESTED:          0  ISSUED:          0  USEFUL:      38251  USELESS:    2388708
LLC USEFUL LOAD PREFETCHES:      38251 PREFETCH ISSUED TO LOWER LEVEL:    2430946  ACCURACY: 1.5735
LLC TIMELY PREFETCHES:      38251 LATE PREFETCHES: 0 DROPPED PREFETCHES: 0
LLC PREFETCHES SAME FILL-ORIGIN LEVEL: 0 DIFFERENT FILL-ORIGIN LEVEL: 0
LLC AVERAGE MISS LATENCY: 180.085 cycles
LLC RQ	ACCESS:     639093	FORWARD:          0	MERGED:          0	TO_CACHE:     639093
LLC WQ	ACCESS:      94658	FORWARD:          0	MERGED:          0	TO_CACHE:      94658
LLC PQ	ACCESS:    3114280	FORWARD:          0	MERGED:          0	TO_CACHE:    3114280

LLC Dense regions hint to LLC: 0

RAW hits: 661074
Loads Generated: 14294714
Loads sent to L1D: 13633640
Stores Generated: 5485191
Stores sent to L1D: 5485191
Major fault: 0 Minor fault: 16669
Allocated PAGES: 16669
CPU 0 L1D nextline prefetcher final stats
 Action = 30 : 1910756
 Action = 23 : 2338341
 Action = 16 : 896500
 Action = 11 : 881548
 Action = 10 : 962037
 Action = 22 : 1485721
 Action = 5 : 572623
 Action = 4 : 973298
 Action = 32 : 2583771
 Action = -3 : 796315
 Action = 12 : 878263
 Action = -6 : 1018492
 Action = 3 : 605197
 Action = 1 : 507580
 Action = -1 : 704613
 Action = 0 : 3832350
 number of times low bandwidth is  7731031
number of times high bandwidth is 4101382

DRAM Statistics
 CHANNEL 0
 RQ ROW_BUFFER_HIT:    1013970  ROW_BUFFER_MISS:    1880436
 DBUS_CONGESTED:       1459
 WQ ROW_BUFFER_HIT:      17377  ROW_BUFFER_MISS:      76836  FULL:          0

 AVG_CONGESTED_CYCLE: 4
 All warmup complete: 2
Channel 0 Bank busy for read cycles: 0
Channel 0 Bank busy for write cycles: 0
Channel 0
Rank 0
0banks busy for read cycles: 92051175
0banks busy for write cycles: 38126
1banks busy for read cycles: 33991669
1banks busy for write cycles: 7981838
2banks busy for read cycles: 22233694
2banks busy for write cycles: 4126523
3banks busy for read cycles: 13504637
3banks busy for write cycles: 2311524
4banks busy for read cycles: 12053614
4banks busy for write cycles: 1179514
5banks busy for read cycles: 10412910
5banks busy for write cycles: 509079
6banks busy for read cycles: 10934645
6banks busy for write cycles: 167685
7banks busy for read cycles: 5224357
7banks busy for write cycles: 37125
8banks busy for read cycles: 1419672
8banks busy for write cycles: 4186

CPU 0 Branch Prediction Accuracy: 93.1302% MPKI: 13.5415 Average ROB Occupancy at Mispredict: 36.5413
Branch types
NOT_BRANCH: 40143936 80.2879%
BRANCH_DIRECT_JUMP: 998904 1.99781%
BRANCH_INDIRECT: 31272 0.062544%
BRANCH_CONDITIONAL: 7172204 14.3444%
BRANCH_DIRECT_CALL: 795827 1.59165%
BRANCH_INDIRECT_CALL: 30862 0.061724%
BRANCH_RETURN: 826685 1.65337%
BRANCH_OTHER: 0 0%

DRAM PAGES: 1048576
Allocated PAGES: 16669
