
*** ChampSim Multicore Out-of-Order Simulator ***

Warmup Instructions: 50000000
Simulation Instructions: 50000000
Number of CPUs: 1
LLC sets: 2048
LLC ways: 16
Off-chip DRAM Size: 4096 MB Channels: 1 Width: 64-bit Data Rate: 6400 MT/s
CPU 0 runs ../PARSEC/parsec_2.1.bodytrack.simlarge.prebuilt.drop_2000M.length_250M.champsimtrace.xz
.xz
CPU 0 Bimodal branch predictor
BTB has LRU replacement policy
ITLB has LRU replacement policy
DTLB has LRU replacement policy
STLB has LRU replacement policy
L1I has LRU replacement policy
CPU 0 L1D - Pythia Preftecher 
L1D has LRU replacement policy
--------- This is L2C prefetcher --------------
L2C has LRU replacement policy
LLC has LRU replacement policy
Heartbeat CPU 0 instructions: 10000002 cycles: 2725510 heartbeat IPC: 3.66904 cumulative IPC: 3.66904 (Simulation time: 0 hr 0 min 25 sec) 
Heartbeat CPU 0 instructions: 20000002 cycles: 5450193 heartbeat IPC: 3.67015 cumulative IPC: 3.6696 (Simulation time: 0 hr 0 min 51 sec) 
Heartbeat CPU 0 instructions: 30000003 cycles: 8173873 heartbeat IPC: 3.6715 cumulative IPC: 3.67023 (Simulation time: 0 hr 1 min 16 sec) 
Heartbeat CPU 0 instructions: 40000002 cycles: 10898344 heartbeat IPC: 3.67044 cumulative IPC: 3.67028 (Simulation time: 0 hr 1 min 43 sec) 
Heartbeat CPU 0 instructions: 50000002 cycles: 13623937 heartbeat IPC: 3.66893 cumulative IPC: 3.67001 (Simulation time: 0 hr 2 min 9 sec) 

Warmup complete CPU 0 instructions: 50000002 cycles: 13623937 (Simulation time: 0 hr 2 min 9 sec) 

Heartbeat CPU 0 instructions: 60000002 cycles: 26399208 heartbeat IPC: 0.782762 cumulative IPC: 0.782762 (Simulation time: 0 hr 2 min 38 sec) 
Heartbeat CPU 0 instructions: 70000000 cycles: 39181281 heartbeat IPC: 0.782346 cumulative IPC: 0.782554 (Simulation time: 0 hr 3 min 7 sec) 
Heartbeat CPU 0 instructions: 80000001 cycles: 51960789 heartbeat IPC: 0.782503 cumulative IPC: 0.782537 (Simulation time: 0 hr 3 min 35 sec) 
Heartbeat CPU 0 instructions: 90000001 cycles: 64744883 heartbeat IPC: 0.782222 cumulative IPC: 0.782458 (Simulation time: 0 hr 4 min 4 sec) 
Heartbeat CPU 0 instructions: 100000003 cycles: 78933516 heartbeat IPC: 0.70479 cumulative IPC: 0.765584 (Simulation time: 0 hr 4 min 36 sec) 
Finished CPU 0 instructions: 50000001 cycles: 65309579 cumulative IPC: 0.765584 (Simulation time: 0 hr 4 min 36 sec) 

ChampSim completed all CPUs

Region of Interest Statistics

CPU 0 cumulative IPC: 0.765584 instructions: 50000001 cycles: 65309579
ITLB TOTAL     ACCESS:    7022092  HIT:    7022081  MISS:         11  HIT %:    99.9998  MISS %: 0.000156648   MPKI: 0.00022
ITLB LOAD TRANSLATION ACCESS:    7022092  HIT:    7022081  MISS:         11  HIT %:    99.9998  MISS %: 0.000156648   MPKI: 0.00022
ITLB PREFETCH  REQUESTED:          0  ISSUED:          0  USEFUL:          0  USELESS:          0
ITLB USEFUL LOAD PREFETCHES:          0 PREFETCH ISSUED TO LOWER LEVEL:          0  ACCURACY: -nan
ITLB TIMELY PREFETCHES:          0 LATE PREFETCHES: 0 DROPPED PREFETCHES: 0
ITLB PREFETCHES SAME FILL-ORIGIN LEVEL: 0 DIFFERENT FILL-ORIGIN LEVEL: 0
ITLB AVERAGE MISS LATENCY: 200.909 cycles
ITLB RQ	ACCESS:    8756912	FORWARD:          0	MERGED:    1734818	TO_CACHE:    7022094

DTLB TOTAL     ACCESS:    7281391  HIT:    7219828  MISS:      61563  HIT %:    99.1545  MISS %:   0.845484   MPKI: 1.23126
DTLB LOAD TRANSLATION ACCESS:    7281391  HIT:    7219828  MISS:      61563  HIT %:    99.1545  MISS %:   0.845484   MPKI: 1.23126
DTLB PREFETCH  REQUESTED:          0  ISSUED:          0  USEFUL:          0  USELESS:          0
DTLB USEFUL LOAD PREFETCHES:          0 PREFETCH ISSUED TO LOWER LEVEL:          0  ACCURACY: -nan
DTLB TIMELY PREFETCHES:          0 LATE PREFETCHES: 0 DROPPED PREFETCHES: 0
DTLB PREFETCHES SAME FILL-ORIGIN LEVEL: 0 DIFFERENT FILL-ORIGIN LEVEL: 0
DTLB AVERAGE MISS LATENCY: 9.22465 cycles
DTLB RQ	ACCESS:    8675527	FORWARD:          0	MERGED:    1393856	TO_CACHE:    7281671

STLB TOTAL     ACCESS:    3655327  HIT:    3655273  MISS:         54  HIT %:    99.9985  MISS %:  0.0014773   MPKI: 0.00108
STLB LOAD TRANSLATION ACCESS:      61574  HIT:      61520  MISS:         54  HIT %:    99.9123  MISS %:  0.0876994   MPKI: 0.00108
STLB TRANSLATION FROM L1D PREFETCHER ACCESS:    3593753  HIT:    3593753  MISS:          0  HIT %:        100  MISS %:          0   MPKI: 0
STLB PREFETCH  REQUESTED:          0  ISSUED:          0  USEFUL:          0  USELESS:          0
STLB USEFUL LOAD PREFETCHES:          0 PREFETCH ISSUED TO LOWER LEVEL:          0  ACCURACY: -nan
STLB TIMELY PREFETCHES:          0 LATE PREFETCHES: 0 DROPPED PREFETCHES: 0
STLB PREFETCHES SAME FILL-ORIGIN LEVEL: 0 DIFFERENT FILL-ORIGIN LEVEL: 0
STLB AVERAGE MISS LATENCY: 211.87 cycles
STLB RQ	ACCESS:    6090631	FORWARD:          0	MERGED:    2435304	TO_CACHE:    3655327

STLB Hit, L1D data hit: 0
STLB Hit, L2C data hit: 0
STLB Hit, LLC data hit: 0
STLB Hit, LLC data miss: 0
STLB STLB hints to L2: 0
L1D TOTAL     ACCESS:   14521457  HIT:   13609456  MISS:     912001  HIT %:    93.7196  MISS %:    6.28037   MPKI: 18.24
L1D LOAD      ACCESS:    5649308  HIT:    5187184  MISS:     462124  HIT %:    91.8198  MISS %:    8.18019   MPKI: 9.24248
L1D RFO       ACCESS:    3013902  HIT:    3005363  MISS:       8539  HIT %:    99.7167  MISS %:    0.28332   MPKI: 0.17078
L1D PREFETCH  ACCESS:    5858247  HIT:    5416909  MISS:     441338  HIT %:    92.4664  MISS %:    7.53362   MPKI: 8.82676
AGUS PREFETCH L1 MISS: 0
L1D PREFETCH  REQUESTED:   12321624  ISSUED:   12316288  USEFUL:      52832  USELESS:     388541
L1D USEFUL LOAD PREFETCHES:      52832 PREFETCH ISSUED TO LOWER LEVEL:     441756  ACCURACY: 11.9595
L1D TIMELY PREFETCHES:      52832 LATE PREFETCHES: 400 DROPPED PREFETCHES: 0
L1D PREFETCHES SAME FILL-ORIGIN LEVEL: 441756 DIFFERENT FILL-ORIGIN LEVEL: 0
L1D AVERAGE MISS LATENCY: 17.9962 cycles
L1D RQ	ACCESS:    9858444	FORWARD:          0	MERGED:    4046284	TO_CACHE:    5652861
L1D WQ	ACCESS:    3062578	FORWARD:     161905	MERGED:      39912	TO_CACHE:    3022666
L1D PQ	ACCESS:    6287231	FORWARD:          0	MERGED:     255568	TO_CACHE:    6029057

L1D UNIQUE REGIONS ACCESSED: 0
L1D REGIONS CONFLICTS: 0
L1D Cross Page Prefetch Requests: 0
L1D Same Page Prefetch Requests: 12600591
L1D ROI Sum of L1D PQ occupancy: 80356291
L1D PREFETCHES PUSHED FROM L2C: 0
L1I TOTAL     ACCESS:    8665307  HIT:    8472818  MISS:     192489  HIT %:    97.7786  MISS %:    2.22138   MPKI: 3.84978
L1I LOAD      ACCESS:    8665307  HIT:    8472818  MISS:     192489  HIT %:    97.7786  MISS %:    2.22138   MPKI: 3.84978
L1I PREFETCH  REQUESTED:          0  ISSUED:          0  USEFUL:          0  USELESS:          0
L1I USEFUL LOAD PREFETCHES:          0 PREFETCH ISSUED TO LOWER LEVEL:          0  ACCURACY: -nan
L1I TIMELY PREFETCHES:          0 LATE PREFETCHES: 0 DROPPED PREFETCHES: 0
L1I PREFETCHES SAME FILL-ORIGIN LEVEL: 0 DIFFERENT FILL-ORIGIN LEVEL: 0
L1I AVERAGE MISS LATENCY: 14.1589 cycles
L1I RQ	ACCESS:   11997540	FORWARD:          0	MERGED:    3240628	TO_CACHE:    8756912

BTB TOTAL     ACCESS:    1670004  HIT:    1576747  MISS:      93257  HIT %:    94.4158  MISS %:    5.58424   MPKI: 1.86514
BTB BRANCH_DIRECT_JUMP	ACCESS:     467675  HIT:     467621  MISS:         54
BTB BRANCH_INDIRECT	ACCESS:          0  HIT:          0  MISS:          0
BTB BRANCH_CONDITIONAL	ACCESS:     916122  HIT:     916014  MISS:        108
BTB BRANCH_DIRECT_CALL	ACCESS:     142923  HIT:     142825  MISS:         98
BTB BRANCH_INDIRECT_CALL	ACCESS:        180  HIT:        178  MISS:          2
BTB BRANCH_RETURN	ACCESS:     143104  HIT:      50109  MISS:      92995
BTB BRANCH_OTHER ACCESS:          0  HIT:          0  MISS:          0

L2C TOTAL     ACCESS:    1137630  HIT:    1060675  MISS:      76955  HIT %:    93.2355  MISS %:     6.7645   MPKI: 1.5391
L2C LOAD      ACCESS:     654211  HIT:     641256  MISS:      12955  HIT %:    98.0198  MISS %:    1.98025   MPKI: 0.2591
L2C DATA LOAD MPKI: 0.24894
L2C INSTRUCTION LOAD MPKI: 0.01016
L2C RFO       ACCESS:       8520  HIT:       8468  MISS:         52  HIT %:    99.3897  MISS %:   0.610329   MPKI: 0.00104
L2C PREFETCH  ACCESS:     441755  HIT:     377856  MISS:      63899  HIT %:    85.5352  MISS %:    14.4648   MPKI: 1.27798
AGUS PREFETCH L1 MISS: 0
L2C DATA PREFETCH MPKI: 1.27798
L2C INSTRUCTION PREFETCH MPKI: 0
L2C WRITEBACK ACCESS:      33090  HIT:      33083  MISS:          7  HIT %:    99.9788  MISS %:  0.0211544   MPKI: 0.00014
L2C LOAD TRANSLATION ACCESS:         54  HIT:         12  MISS:         42  HIT %:    22.2222  MISS %:    77.7778   MPKI: 0.00084
L2C PREFETCH  REQUESTED:          0  ISSUED:          0  USEFUL:       3546  USELESS:      60394
L2C USEFUL LOAD PREFETCHES:       3546 PREFETCH ISSUED TO LOWER LEVEL:      63899  ACCURACY: 5.54938
L2C TIMELY PREFETCHES:       3546 LATE PREFETCHES: 0 DROPPED PREFETCHES: 0
L2C PREFETCHES SAME FILL-ORIGIN LEVEL: 0 DIFFERENT FILL-ORIGIN LEVEL: 0
L2C AVERAGE MISS LATENCY: 32.7276 cycles
L2C RQ	ACCESS:     662788	FORWARD:          0	MERGED:          0	TO_CACHE:     662785
L2C WQ	ACCESS:      33090	FORWARD:          4	MERGED:          0	TO_CACHE:      33090
L2C PQ	ACCESS:     441756	FORWARD:          0	MERGED:          0	TO_CACHE:     441755

L2C Instructions Evicting Data 464
L2C Translations Evicting Data 41
L2C Data Evicting Data 76016
L2C Instructions Evicting Instructions 44
L2C Translations Evicting Instructions 1
L2C Data Evicting Instructions 366
L2C Instructions Evicting Translations 0
L2C Translations Evicting Translations 0
L2C Data Evicting Translations 16
L2C Dense regions hint from L2: 0
PSCL5 TOTAL     ACCESS:         54  HIT:         54  MISS:          0  HIT %:        100  MISS %:          0   MPKI: 0
PSCL5 LOAD TRANSLATION ACCESS:         54  HIT:         54  MISS:          0  HIT %:        100  MISS %:          0   MPKI: 0
PSCL5 PREFETCH  REQUESTED:          0  ISSUED:          0  USEFUL:          0  USELESS:          0
PSCL5 USEFUL LOAD PREFETCHES:          0 PREFETCH ISSUED TO LOWER LEVEL:          0  ACCURACY: -nan
PSCL5 TIMELY PREFETCHES:          0 LATE PREFETCHES: 0 DROPPED PREFETCHES: 0
PSCL5 PREFETCHES SAME FILL-ORIGIN LEVEL: 0 DIFFERENT FILL-ORIGIN LEVEL: 0

PSCL4 TOTAL     ACCESS:         54  HIT:         54  MISS:          0  HIT %:        100  MISS %:          0   MPKI: 0
PSCL4 LOAD TRANSLATION ACCESS:         54  HIT:         54  MISS:          0  HIT %:        100  MISS %:          0   MPKI: 0
PSCL4 PREFETCH  REQUESTED:          0  ISSUED:          0  USEFUL:          0  USELESS:          0
PSCL4 USEFUL LOAD PREFETCHES:          0 PREFETCH ISSUED TO LOWER LEVEL:          0  ACCURACY: -nan
PSCL4 TIMELY PREFETCHES:          0 LATE PREFETCHES: 0 DROPPED PREFETCHES: 0
PSCL4 PREFETCHES SAME FILL-ORIGIN LEVEL: 0 DIFFERENT FILL-ORIGIN LEVEL: 0

PSCL3 TOTAL     ACCESS:         54  HIT:         54  MISS:          0  HIT %:        100  MISS %:          0   MPKI: 0
PSCL3 LOAD TRANSLATION ACCESS:         54  HIT:         54  MISS:          0  HIT %:        100  MISS %:          0   MPKI: 0
PSCL3 PREFETCH  REQUESTED:          0  ISSUED:          0  USEFUL:          0  USELESS:          0
PSCL3 USEFUL LOAD PREFETCHES:          0 PREFETCH ISSUED TO LOWER LEVEL:          0  ACCURACY: -nan
PSCL3 TIMELY PREFETCHES:          0 LATE PREFETCHES: 0 DROPPED PREFETCHES: 0
PSCL3 PREFETCHES SAME FILL-ORIGIN LEVEL: 0 DIFFERENT FILL-ORIGIN LEVEL: 0

PSCL2 TOTAL     ACCESS:         54  HIT:         50  MISS:          4  HIT %:    92.5926  MISS %:    7.40741   MPKI: 8e-05
PSCL2 LOAD TRANSLATION ACCESS:         54  HIT:         50  MISS:          4  HIT %:    92.5926  MISS %:    7.40741   MPKI: 8e-05
PSCL2 PREFETCH  REQUESTED:          0  ISSUED:          0  USEFUL:          0  USELESS:          0
PSCL2 USEFUL LOAD PREFETCHES:          0 PREFETCH ISSUED TO LOWER LEVEL:          0  ACCURACY: -nan
PSCL2 TIMELY PREFETCHES:          0 LATE PREFETCHES: 0 DROPPED PREFETCHES: 0
PSCL2 PREFETCHES SAME FILL-ORIGIN LEVEL: 0 DIFFERENT FILL-ORIGIN LEVEL: 0

LLC TOTAL     ACCESS:      77045  HIT:      75084  MISS:       1961  HIT %:    97.4547  MISS %:    2.54527   MPKI: 0.03922
LLC LOAD      ACCESS:      12955  HIT:      12479  MISS:        476  HIT %:    96.3257  MISS %:    3.67426   MPKI: 0.00952
LLC RFO       ACCESS:         52  HIT:         20  MISS:         32  HIT %:    38.4615  MISS %:    61.5385   MPKI: 0.00064
LLC PREFETCH  ACCESS:      63899  HIT:      62466  MISS:       1433  HIT %:    97.7574  MISS %:     2.2426   MPKI: 0.02866
AGUS PREFETCH L1 MISS: 0
LLC WRITEBACK ACCESS:         97  HIT:         97  MISS:          0  HIT %:        100  MISS %:          0   MPKI: 0
LLC LOAD TRANSLATION ACCESS:         42  HIT:         22  MISS:         20  HIT %:     52.381  MISS %:     47.619   MPKI: 0.0004
LLC PREFETCH  REQUESTED:          0  ISSUED:          0  USEFUL:        492  USELESS:          0
LLC USEFUL LOAD PREFETCHES:        492 PREFETCH ISSUED TO LOWER LEVEL:       1433  ACCURACY: 34.3336
LLC TIMELY PREFETCHES:        492 LATE PREFETCHES: 0 DROPPED PREFETCHES: 0
LLC PREFETCHES SAME FILL-ORIGIN LEVEL: 0 DIFFERENT FILL-ORIGIN LEVEL: 0
LLC AVERAGE MISS LATENCY: 106.369 cycles
LLC RQ	ACCESS:      13049	FORWARD:          0	MERGED:          0	TO_CACHE:      13049
LLC WQ	ACCESS:         97	FORWARD:          0	MERGED:          0	TO_CACHE:         97
LLC PQ	ACCESS:      63899	FORWARD:          0	MERGED:          0	TO_CACHE:      63899

LLC Dense regions hint to LLC: 0

RAW hits: 891265
Loads Generated: 10749709
Loads sent to L1D: 9858444
Stores Generated: 3062576
Stores sent to L1D: 3062578
Major fault: 0 Minor fault: 313
Allocated PAGES: 313
CPU 0 L1D nextline prefetcher final stats
 Action = 30 : 2145158
 Action = 23 : 604821
 Action = 16 : 330188
 Action = 11 : 160096
 Action = 10 : 122457
 Action = 22 : 582069
 Action = 5 : 89595
 Action = 4 : 87254
 Action = 32 : 2597408
 Action = -3 : 101878
 Action = 12 : 170931
 Action = -6 : 380539
 Action = 3 : 85685
 Action = 1 : 92621
 Action = -1 : 89328
 Action = 0 : 3368865
 number of times low bandwidth is  4880764
number of times high bandwidth is 0

DRAM Statistics
 CHANNEL 0
 RQ ROW_BUFFER_HIT:       1502  ROW_BUFFER_MISS:        459
 DBUS_CONGESTED:          0
 WQ ROW_BUFFER_HIT:          0  ROW_BUFFER_MISS:          0  FULL:          0

 AVG_CONGESTED_CYCLE: -
 All warmup complete: 2
Channel 0 Bank busy for read cycles: 0
Channel 0 Bank busy for write cycles: 0
Channel 0
Rank 0
0banks busy for read cycles: 65229117
0banks busy for write cycles: 0
1banks busy for read cycles: 49567
1banks busy for write cycles: 0
2banks busy for read cycles: 14977
2banks busy for write cycles: 0
3banks busy for read cycles: 7002
3banks busy for write cycles: 0
4banks busy for read cycles: 4577
4banks busy for write cycles: 0
5banks busy for read cycles: 2025
5banks busy for write cycles: 0
6banks busy for read cycles: 1473
6banks busy for write cycles: 0
7banks busy for read cycles: 581
7banks busy for write cycles: 0
8banks busy for read cycles: 261
8banks busy for write cycles: 0

CPU 0 Branch Prediction Accuracy: 97.5814% MPKI: 2.2396 Average ROB Occupancy at Mispredict: 57.1995
Branch types
NOT_BRANCH: 45369765 90.7395%
BRANCH_DIRECT_JUMP: 467675 0.93535%
BRANCH_INDIRECT: 0 0%
BRANCH_CONDITIONAL: 3876038 7.75208%
BRANCH_DIRECT_CALL: 142923 0.285846%
BRANCH_INDIRECT_CALL: 180 0.00036%
BRANCH_RETURN: 143104 0.286208%
BRANCH_OTHER: 0 0%

DRAM PAGES: 1048576
Allocated PAGES: 313
