
*** ChampSim Multicore Out-of-Order Simulator ***

Warmup Instructions: 50000000
Simulation Instructions: 50000000
Number of CPUs: 1
LLC sets: 2048
LLC ways: 16
Off-chip DRAM Size: 4096 MB Channels: 1 Width: 64-bit Data Rate: 6400 MT/s
CPU 0 runs ../PARSEC/parsec_2.1.blackscholes.simlarge.prebuilt.drop_3000M.length_250M.champsimtrace.xz
.xz
CPU 0 Bimodal branch predictor
BTB has LRU replacement policy
ITLB has LRU replacement policy
DTLB has LRU replacement policy
STLB has LRU replacement policy
L1I has LRU replacement policy
CPU 0 L1D - Pythia Preftecher 
L1D has LRU replacement policy
--------- This is L2C prefetcher --------------
L2C has LRU replacement policy
LLC has LRU replacement policy
Heartbeat CPU 0 instructions: 10000000 cycles: 3083826 heartbeat IPC: 3.24273 cumulative IPC: 3.24273 (Simulation time: 0 hr 0 min 31 sec) 
Heartbeat CPU 0 instructions: 20000003 cycles: 6167410 heartbeat IPC: 3.24298 cumulative IPC: 3.24285 (Simulation time: 0 hr 1 min 1 sec) 
Heartbeat CPU 0 instructions: 30000002 cycles: 9251320 heartbeat IPC: 3.24264 cumulative IPC: 3.24278 (Simulation time: 0 hr 1 min 32 sec) 
Heartbeat CPU 0 instructions: 40000001 cycles: 12334730 heartbeat IPC: 3.24316 cumulative IPC: 3.24288 (Simulation time: 0 hr 2 min 3 sec) 
Heartbeat CPU 0 instructions: 50000002 cycles: 15418326 heartbeat IPC: 3.24297 cumulative IPC: 3.24289 (Simulation time: 0 hr 2 min 35 sec) 

Warmup complete CPU 0 instructions: 50000002 cycles: 15418326 (Simulation time: 0 hr 2 min 35 sec) 

Heartbeat CPU 0 instructions: 60000002 cycles: 31333828 heartbeat IPC: 0.628318 cumulative IPC: 0.628318 (Simulation time: 0 hr 3 min 8 sec) 
Heartbeat CPU 0 instructions: 70000003 cycles: 47234187 heartbeat IPC: 0.628917 cumulative IPC: 0.628617 (Simulation time: 0 hr 3 min 42 sec) 
Heartbeat CPU 0 instructions: 80000000 cycles: 63145786 heartbeat IPC: 0.628472 cumulative IPC: 0.628569 (Simulation time: 0 hr 4 min 17 sec) 
Heartbeat CPU 0 instructions: 90000000 cycles: 79064921 heartbeat IPC: 0.628175 cumulative IPC: 0.62847 (Simulation time: 0 hr 4 min 51 sec) 
Heartbeat CPU 0 instructions: 100000002 cycles: 94973687 heartbeat IPC: 0.628584 cumulative IPC: 0.628493 (Simulation time: 0 hr 5 min 26 sec) 
Finished CPU 0 instructions: 50000000 cycles: 79555361 cumulative IPC: 0.628493 (Simulation time: 0 hr 5 min 26 sec) 

ChampSim completed all CPUs

Region of Interest Statistics

CPU 0 cumulative IPC: 0.628493 instructions: 50000000 cycles: 79555361
ITLB TOTAL     ACCESS:    7287498  HIT:    7287498  MISS:          0  HIT %:        100  MISS %:          0   MPKI: 0
ITLB LOAD TRANSLATION ACCESS:    7287498  HIT:    7287498  MISS:          0  HIT %:        100  MISS %:          0   MPKI: 0
ITLB PREFETCH  REQUESTED:          0  ISSUED:          0  USEFUL:          0  USELESS:          0
ITLB USEFUL LOAD PREFETCHES:          0 PREFETCH ISSUED TO LOWER LEVEL:          0  ACCURACY: -nan
ITLB TIMELY PREFETCHES:          0 LATE PREFETCHES: 0 DROPPED PREFETCHES: 0
ITLB PREFETCHES SAME FILL-ORIGIN LEVEL: 0 DIFFERENT FILL-ORIGIN LEVEL: 0
ITLB AVERAGE MISS LATENCY: -nan cycles
ITLB RQ	ACCESS:    8776397	FORWARD:          0	MERGED:    1488899	TO_CACHE:    7287498

DTLB TOTAL     ACCESS:    9070118  HIT:    8857942  MISS:     212176  HIT %:    97.6607  MISS %:    2.33929   MPKI: 4.24352
DTLB LOAD TRANSLATION ACCESS:    9070118  HIT:    8857942  MISS:     212176  HIT %:    97.6607  MISS %:    2.33929   MPKI: 4.24352
DTLB PREFETCH  REQUESTED:          0  ISSUED:          0  USEFUL:          0  USELESS:          0
DTLB USEFUL LOAD PREFETCHES:          0 PREFETCH ISSUED TO LOWER LEVEL:          0  ACCURACY: -nan
DTLB TIMELY PREFETCHES:          0 LATE PREFETCHES: 0 DROPPED PREFETCHES: 0
DTLB PREFETCHES SAME FILL-ORIGIN LEVEL: 0 DIFFERENT FILL-ORIGIN LEVEL: 0
DTLB AVERAGE MISS LATENCY: 9.13651 cycles
DTLB RQ	ACCESS:   11350023	FORWARD:          0	MERGED:    2273293	TO_CACHE:    9076730

STLB TOTAL     ACCESS:    4149029  HIT:    4149029  MISS:          0  HIT %:        100  MISS %:          0   MPKI: 0
STLB LOAD TRANSLATION ACCESS:     212176  HIT:     212176  MISS:          0  HIT %:        100  MISS %:          0   MPKI: 0
STLB TRANSLATION FROM L1D PREFETCHER ACCESS:    3936853  HIT:    3936853  MISS:          0  HIT %:        100  MISS %:          0   MPKI: 0
STLB PREFETCH  REQUESTED:          0  ISSUED:          0  USEFUL:          0  USELESS:          0
STLB USEFUL LOAD PREFETCHES:          0 PREFETCH ISSUED TO LOWER LEVEL:          0  ACCURACY: -nan
STLB TIMELY PREFETCHES:          0 LATE PREFETCHES: 0 DROPPED PREFETCHES: 0
STLB PREFETCHES SAME FILL-ORIGIN LEVEL: 0 DIFFERENT FILL-ORIGIN LEVEL: 0
STLB AVERAGE MISS LATENCY: -nan cycles
STLB RQ	ACCESS:    5687385	FORWARD:          0	MERGED:    1538355	TO_CACHE:    4149030

STLB Hit, L1D data hit: 0
STLB Hit, L2C data hit: 0
STLB Hit, LLC data hit: 0
STLB Hit, LLC data miss: 0
STLB STLB hints to L2: 0
L1D TOTAL     ACCESS:   16823967  HIT:   16749330  MISS:      74637  HIT %:    99.5564  MISS %:   0.443635   MPKI: 1.49274
L1D LOAD      ACCESS:    7373669  HIT:    7355846  MISS:      17823  HIT %:    99.7583  MISS %:   0.241711   MPKI: 0.35646
L1D RFO       ACCESS:    3976317  HIT:    3971459  MISS:       4858  HIT %:    99.8778  MISS %:   0.122173   MPKI: 0.09716
L1D PREFETCH  ACCESS:    5473981  HIT:    5422025  MISS:      51956  HIT %:    99.0509  MISS %:   0.949145   MPKI: 1.03912
AGUS PREFETCH L1 MISS: 0
L1D PREFETCH  REQUESTED:   10978388  ISSUED:   10976731  USEFUL:      17022  USELESS:      34959
L1D USEFUL LOAD PREFETCHES:      17022 PREFETCH ISSUED TO LOWER LEVEL:      51956  ACCURACY: 32.7623
L1D TIMELY PREFETCHES:      17022 LATE PREFETCHES: 0 DROPPED PREFETCHES: 0
L1D PREFETCHES SAME FILL-ORIGIN LEVEL: 51956 DIFFERENT FILL-ORIGIN LEVEL: 0
L1D AVERAGE MISS LATENCY: 29.0221 cycles
L1D RQ	ACCESS:    9903812	FORWARD:          0	MERGED:    2446257	TO_CACHE:    7373705
L1D WQ	ACCESS:    3986104	FORWARD:      83850	MERGED:       9786	TO_CACHE:    3976318
L1D PQ	ACCESS:    5501522	FORWARD:          0	MERGED:      26313	TO_CACHE:    5475209

L1D UNIQUE REGIONS ACCESSED: 0
L1D REGIONS CONFLICTS: 0
L1D Cross Page Prefetch Requests: 0
L1D Same Page Prefetch Requests: 11702272
L1D ROI Sum of L1D PQ occupancy: 71350207
L1D PREFETCHES PUSHED FROM L2C: 0
L1I TOTAL     ACCESS:    8776395  HIT:    8776395  MISS:          0  HIT %:        100  MISS %:          0   MPKI: 0
L1I LOAD      ACCESS:    8776395  HIT:    8776395  MISS:          0  HIT %:        100  MISS %:          0   MPKI: 0
L1I PREFETCH  REQUESTED:          0  ISSUED:          0  USEFUL:          0  USELESS:          0
L1I USEFUL LOAD PREFETCHES:          0 PREFETCH ISSUED TO LOWER LEVEL:          0  ACCURACY: -nan
L1I TIMELY PREFETCHES:          0 LATE PREFETCHES: 0 DROPPED PREFETCHES: 0
L1I PREFETCHES SAME FILL-ORIGIN LEVEL: 0 DIFFERENT FILL-ORIGIN LEVEL: 0
L1I AVERAGE MISS LATENCY: -nan cycles
L1I RQ	ACCESS:   12808908	FORWARD:          0	MERGED:    4032511	TO_CACHE:    8776397

BTB TOTAL     ACCESS:    2652244  HIT:    2343245  MISS:     308999  HIT %:    88.3495  MISS %:    11.6505   MPKI: 6.17998
BTB BRANCH_DIRECT_JUMP	ACCESS:     644526  HIT:     644521  MISS:          5
BTB BRANCH_INDIRECT	ACCESS:          0  HIT:          0  MISS:          0
BTB BRANCH_CONDITIONAL	ACCESS:     764348  HIT:     764336  MISS:         12
BTB BRANCH_DIRECT_CALL	ACCESS:     621685  HIT:     621676  MISS:          9
BTB BRANCH_INDIRECT_CALL	ACCESS:          0  HIT:          0  MISS:          0
BTB BRANCH_RETURN	ACCESS:     621685  HIT:     312712  MISS:     308973
BTB BRANCH_OTHER ACCESS:          0  HIT:          0  MISS:          0

L2C TOTAL     ACCESS:      79487  HIT:      45266  MISS:      34221  HIT %:    56.9477  MISS %:    43.0523   MPKI: 0.68442
L2C LOAD      ACCESS:      17823  HIT:       5045  MISS:      12778  HIT %:    28.3061  MISS %:    71.6939   MPKI: 0.25556
L2C DATA LOAD MPKI: 0.25556
L2C INSTRUCTION LOAD MPKI: 0
L2C RFO       ACCESS:       4858  HIT:          0  MISS:       4858  HIT %:          0  MISS %:        100   MPKI: 0.09716
L2C PREFETCH  ACCESS:      51956  HIT:      35371  MISS:      16585  HIT %:    68.0788  MISS %:    31.9212   MPKI: 0.3317
AGUS PREFETCH L1 MISS: 0
L2C DATA PREFETCH MPKI: 0.3317
L2C INSTRUCTION PREFETCH MPKI: 0
L2C WRITEBACK ACCESS:       4850  HIT:       4850  MISS:          0  HIT %:        100  MISS %:          0   MPKI: 0
L2C PREFETCH  REQUESTED:          0  ISSUED:          0  USEFUL:       3205  USELESS:      14299
L2C USEFUL LOAD PREFETCHES:       3205 PREFETCH ISSUED TO LOWER LEVEL:      16585  ACCURACY: 19.3247
L2C TIMELY PREFETCHES:       3205 LATE PREFETCHES: 0 DROPPED PREFETCHES: 0
L2C PREFETCHES SAME FILL-ORIGIN LEVEL: 0 DIFFERENT FILL-ORIGIN LEVEL: 0
L2C AVERAGE MISS LATENCY: 30.078 cycles
L2C RQ	ACCESS:      22681	FORWARD:          0	MERGED:          0	TO_CACHE:      22681
L2C WQ	ACCESS:       4850	FORWARD:          0	MERGED:          0	TO_CACHE:       4850
L2C PQ	ACCESS:      51956	FORWARD:          0	MERGED:          0	TO_CACHE:      51956

L2C Instructions Evicting Data 0
L2C Translations Evicting Data 0
L2C Data Evicting Data 34207
L2C Instructions Evicting Instructions 0
L2C Translations Evicting Instructions 0
L2C Data Evicting Instructions 5
L2C Instructions Evicting Translations 0
L2C Translations Evicting Translations 0
L2C Data Evicting Translations 9
L2C Dense regions hint from L2: 0
PSCL5 PREFETCH  REQUESTED:          0  ISSUED:          0  USEFUL:          0  USELESS:          0
PSCL5 USEFUL LOAD PREFETCHES:          0 PREFETCH ISSUED TO LOWER LEVEL:          0  ACCURACY: -nan
PSCL5 TIMELY PREFETCHES:          0 LATE PREFETCHES: 0 DROPPED PREFETCHES: 0
PSCL5 PREFETCHES SAME FILL-ORIGIN LEVEL: 0 DIFFERENT FILL-ORIGIN LEVEL: 0

PSCL4 PREFETCH  REQUESTED:          0  ISSUED:          0  USEFUL:          0  USELESS:          0
PSCL4 USEFUL LOAD PREFETCHES:          0 PREFETCH ISSUED TO LOWER LEVEL:          0  ACCURACY: -nan
PSCL4 TIMELY PREFETCHES:          0 LATE PREFETCHES: 0 DROPPED PREFETCHES: 0
PSCL4 PREFETCHES SAME FILL-ORIGIN LEVEL: 0 DIFFERENT FILL-ORIGIN LEVEL: 0

PSCL3 PREFETCH  REQUESTED:          0  ISSUED:          0  USEFUL:          0  USELESS:          0
PSCL3 USEFUL LOAD PREFETCHES:          0 PREFETCH ISSUED TO LOWER LEVEL:          0  ACCURACY: -nan
PSCL3 TIMELY PREFETCHES:          0 LATE PREFETCHES: 0 DROPPED PREFETCHES: 0
PSCL3 PREFETCHES SAME FILL-ORIGIN LEVEL: 0 DIFFERENT FILL-ORIGIN LEVEL: 0

PSCL2 PREFETCH  REQUESTED:          0  ISSUED:          0  USEFUL:          0  USELESS:          0
PSCL2 USEFUL LOAD PREFETCHES:          0 PREFETCH ISSUED TO LOWER LEVEL:          0  ACCURACY: -nan
PSCL2 TIMELY PREFETCHES:          0 LATE PREFETCHES: 0 DROPPED PREFETCHES: 0
PSCL2 PREFETCHES SAME FILL-ORIGIN LEVEL: 0 DIFFERENT FILL-ORIGIN LEVEL: 0

LLC TOTAL     ACCESS:      39103  HIT:      39077  MISS:         26  HIT %:    99.9335  MISS %:  0.0664911   MPKI: 0.00052
LLC LOAD      ACCESS:      12778  HIT:      12778  MISS:          0  HIT %:        100  MISS %:          0   MPKI: 0
LLC RFO       ACCESS:       4858  HIT:       4858  MISS:          0  HIT %:        100  MISS %:          0   MPKI: 0
LLC PREFETCH  ACCESS:      16585  HIT:      16559  MISS:         26  HIT %:    99.8432  MISS %:   0.156768   MPKI: 0.00052
AGUS PREFETCH L1 MISS: 0
LLC WRITEBACK ACCESS:       4882  HIT:       4882  MISS:          0  HIT %:        100  MISS %:          0   MPKI: 0
LLC PREFETCH  REQUESTED:          0  ISSUED:          0  USEFUL:       9158  USELESS:          0
LLC USEFUL LOAD PREFETCHES:       9158 PREFETCH ISSUED TO LOWER LEVEL:         26  ACCURACY: 35223.1
LLC TIMELY PREFETCHES:       9158 LATE PREFETCHES: 0 DROPPED PREFETCHES: 0
LLC PREFETCHES SAME FILL-ORIGIN LEVEL: 0 DIFFERENT FILL-ORIGIN LEVEL: 0
LLC AVERAGE MISS LATENCY: 102.654 cycles
LLC RQ	ACCESS:      17636	FORWARD:          0	MERGED:          0	TO_CACHE:      17636
LLC WQ	ACCESS:       4882	FORWARD:          0	MERGED:          0	TO_CACHE:       4882
LLC PQ	ACCESS:      16585	FORWARD:          0	MERGED:          0	TO_CACHE:      16585

LLC Dense regions hint to LLC: 0

RAW hits: 498326
Loads Generated: 10402138
Loads sent to L1D: 9903812
Stores Generated: 3986106
Stores sent to L1D: 3986104
Major fault: 0 Minor fault: 486
Allocated PAGES: 486
CPU 0 L1D nextline prefetcher final stats
 Action = 30 : 1144572
 Action = 23 : 499210
 Action = 16 : 435867
 Action = 11 : 356492
 Action = 10 : 556155
 Action = 22 : 796849
 Action = 5 : 57948
 Action = 32 : 1724029
 Action = -3 : 976240
 Action = 12 : 404302
 Action = -6 : 1354282
 Action = 3 : 44465
 Action = 0 : 5457714
 Action = -1 : 191779
 Action = 1 : 43195
 Action = 4 : 60710
 number of times low bandwidth is  6336911
number of times high bandwidth is 0

DRAM Statistics
 CHANNEL 0
 RQ ROW_BUFFER_HIT:         18  ROW_BUFFER_MISS:          8
 DBUS_CONGESTED:          0
 WQ ROW_BUFFER_HIT:          0  ROW_BUFFER_MISS:          0  FULL:          0

 AVG_CONGESTED_CYCLE: -
 All warmup complete: 2
Channel 0 Bank busy for read cycles: 0
Channel 0 Bank busy for write cycles: 0
Channel 0
Rank 0
0banks busy for read cycles: 79553508
0banks busy for write cycles: 0
1banks busy for read cycles: 1608
1banks busy for write cycles: 0
2banks busy for read cycles: 246
2banks busy for write cycles: 0
3banks busy for read cycles: 0
3banks busy for write cycles: 0
4banks busy for read cycles: 0
4banks busy for write cycles: 0
5banks busy for read cycles: 0
5banks busy for write cycles: 0
6banks busy for read cycles: 0
6banks busy for write cycles: 0
7banks busy for read cycles: 0
7banks busy for write cycles: 0
8banks busy for read cycles: 0
8banks busy for write cycles: 0

CPU 0 Branch Prediction Accuracy: 97.2686% MPKI: 2.67976 Average ROB Occupancy at Mispredict: 25.7974
Branch types
NOT_BRANCH: 45094117 90.1882%
BRANCH_DIRECT_JUMP: 644526 1.28905%
BRANCH_INDIRECT: 0 0%
BRANCH_CONDITIONAL: 3017663 6.03533%
BRANCH_DIRECT_CALL: 621685 1.24337%
BRANCH_INDIRECT_CALL: 0 0%
BRANCH_RETURN: 621685 1.24337%
BRANCH_OTHER: 0 0%

DRAM PAGES: 1048576
Allocated PAGES: 486
