
*** ChampSim Multicore Out-of-Order Simulator ***

Warmup Instructions: 50000000
Simulation Instructions: 50000000
Number of CPUs: 1
LLC sets: 2048
LLC ways: 16
Off-chip DRAM Size: 4096 MB Channels: 1 Width: 64-bit Data Rate: 6400 MT/s
CPU 0 runs ../PARSEC/parsec_2.1.bodytrack.simlarge.prebuilt.drop_2000M.length_250M.champsimtrace.xz
.xz
CPU 0 Bimodal branch predictor
BTB has LRU replacement policy
ITLB has LRU replacement policy
DTLB has LRU replacement policy
STLB has LRU replacement policy
L1I has LRU replacement policy
L1D has LRU replacement policy
L2C has LRU replacement policy
LLC has LRU replacement policy
Heartbeat CPU 0 instructions: 10000002 cycles: 2726006 heartbeat IPC: 3.66837 cumulative IPC: 3.66837 (Simulation time: 0 hr 0 min 10 sec) 
Heartbeat CPU 0 instructions: 20000002 cycles: 5451023 heartbeat IPC: 3.6697 cumulative IPC: 3.66904 (Simulation time: 0 hr 0 min 20 sec) 
Heartbeat CPU 0 instructions: 30000003 cycles: 8175049 heartbeat IPC: 3.67104 cumulative IPC: 3.6697 (Simulation time: 0 hr 0 min 29 sec) 
Heartbeat CPU 0 instructions: 40000002 cycles: 10899812 heartbeat IPC: 3.67004 cumulative IPC: 3.66979 (Simulation time: 0 hr 0 min 39 sec) 
Heartbeat CPU 0 instructions: 50000002 cycles: 13625720 heartbeat IPC: 3.6685 cumulative IPC: 3.66953 (Simulation time: 0 hr 0 min 49 sec) 

Warmup complete CPU 0 instructions: 50000002 cycles: 13625720 (Simulation time: 0 hr 0 min 49 sec) 

Heartbeat CPU 0 instructions: 60000002 cycles: 26395722 heartbeat IPC: 0.783085 cumulative IPC: 0.783085 (Simulation time: 0 hr 1 min 2 sec) 
Heartbeat CPU 0 instructions: 70000000 cycles: 39175963 heartbeat IPC: 0.782458 cumulative IPC: 0.782771 (Simulation time: 0 hr 1 min 14 sec) 
Heartbeat CPU 0 instructions: 80000001 cycles: 51951765 heartbeat IPC: 0.78273 cumulative IPC: 0.782758 (Simulation time: 0 hr 1 min 26 sec) 
Heartbeat CPU 0 instructions: 90000001 cycles: 64737369 heartbeat IPC: 0.78213 cumulative IPC: 0.7826 (Simulation time: 0 hr 1 min 40 sec) 
Heartbeat CPU 0 instructions: 100000003 cycles: 78961081 heartbeat IPC: 0.703052 cumulative IPC: 0.765282 (Simulation time: 0 hr 1 min 53 sec) 
Finished CPU 0 instructions: 50000001 cycles: 65335361 cumulative IPC: 0.765282 (Simulation time: 0 hr 1 min 53 sec) 

ChampSim completed all CPUs

Region of Interest Statistics

CPU 0 cumulative IPC: 0.765282 instructions: 50000001 cycles: 65335361
ITLB TOTAL     ACCESS:    7022204  HIT:    7022193  MISS:         11  HIT %:    99.9998  MISS %: 0.000156646   MPKI: 0.00022
ITLB LOAD TRANSLATION ACCESS:    7022204  HIT:    7022193  MISS:         11  HIT %:    99.9998  MISS %: 0.000156646   MPKI: 0.00022
ITLB PREFETCH  REQUESTED:          0  ISSUED:          0  USEFUL:          0  USELESS:          0
ITLB USEFUL LOAD PREFETCHES:          0 PREFETCH ISSUED TO LOWER LEVEL:          0  ACCURACY: -nan
ITLB TIMELY PREFETCHES:          0 LATE PREFETCHES: 0 DROPPED PREFETCHES: 0
ITLB PREFETCHES SAME FILL-ORIGIN LEVEL: 0 DIFFERENT FILL-ORIGIN LEVEL: 0
ITLB AVERAGE MISS LATENCY: 204.545 cycles
ITLB RQ	ACCESS:    8756860	FORWARD:          0	MERGED:    1734654	TO_CACHE:    7022206

DTLB TOTAL     ACCESS:    7278385  HIT:    7216822  MISS:      61563  HIT %:    99.1542  MISS %:   0.845833   MPKI: 1.23126
DTLB LOAD TRANSLATION ACCESS:    7278385  HIT:    7216822  MISS:      61563  HIT %:    99.1542  MISS %:   0.845833   MPKI: 1.23126
DTLB PREFETCH  REQUESTED:          0  ISSUED:          0  USEFUL:          0  USELESS:          0
DTLB USEFUL LOAD PREFETCHES:          0 PREFETCH ISSUED TO LOWER LEVEL:          0  ACCURACY: -nan
DTLB TIMELY PREFETCHES:          0 LATE PREFETCHES: 0 DROPPED PREFETCHES: 0
DTLB PREFETCHES SAME FILL-ORIGIN LEVEL: 0 DIFFERENT FILL-ORIGIN LEVEL: 0
DTLB AVERAGE MISS LATENCY: 9.21558 cycles
DTLB RQ	ACCESS:    8673536	FORWARD:          0	MERGED:    1394888	TO_CACHE:    7278648

STLB TOTAL     ACCESS:      61574  HIT:      61520  MISS:         54  HIT %:    99.9123  MISS %:  0.0876994   MPKI: 0.00108
STLB LOAD TRANSLATION ACCESS:      61574  HIT:      61520  MISS:         54  HIT %:    99.9123  MISS %:  0.0876994   MPKI: 0.00108
STLB PREFETCH  REQUESTED:          0  ISSUED:          0  USEFUL:          0  USELESS:          0
STLB USEFUL LOAD PREFETCHES:          0 PREFETCH ISSUED TO LOWER LEVEL:          0  ACCURACY: -nan
STLB TIMELY PREFETCHES:          0 LATE PREFETCHES: 0 DROPPED PREFETCHES: 0
STLB PREFETCHES SAME FILL-ORIGIN LEVEL: 0 DIFFERENT FILL-ORIGIN LEVEL: 0
STLB AVERAGE MISS LATENCY: 201.315 cycles
STLB RQ	ACCESS:      61574	FORWARD:          0	MERGED:          0	TO_CACHE:      61574

STLB Hit, L1D data hit: 0
STLB Hit, L2C data hit: 0
STLB Hit, LLC data hit: 0
STLB Hit, LLC data miss: 0
STLB STLB hints to L2: 0
L1D TOTAL     ACCESS:    8625704  HIT:    8112286  MISS:     513418  HIT %:    94.0478  MISS %:    5.95219   MPKI: 10.2684
L1D LOAD      ACCESS:    5642212  HIT:    5151278  MISS:     490934  HIT %:    91.2989  MISS %:    8.70109   MPKI: 9.81868
L1D RFO       ACCESS:    2983492  HIT:    2961008  MISS:      22484  HIT %:    99.2464  MISS %:   0.753614   MPKI: 0.44968
L1D PREFETCH  REQUESTED:          0  ISSUED:          0  USEFUL:          0  USELESS:          0
L1D USEFUL LOAD PREFETCHES:          0 PREFETCH ISSUED TO LOWER LEVEL:          0  ACCURACY: -nan
L1D TIMELY PREFETCHES:          0 LATE PREFETCHES: 0 DROPPED PREFETCHES: 0
L1D PREFETCHES SAME FILL-ORIGIN LEVEL: 0 DIFFERENT FILL-ORIGIN LEVEL: 0
L1D AVERAGE MISS LATENCY: 15.4419 cycles
L1D RQ	ACCESS:    9854954	FORWARD:          0	MERGED:    4045707	TO_CACHE:    5650610
L1D WQ	ACCESS:    3062578	FORWARD:     158637	MERGED:      39652	TO_CACHE:    3022926

L1D UNIQUE REGIONS ACCESSED: 0
L1D REGIONS CONFLICTS: 0
L1D Cross Page Prefetch Requests: 0
L1D Same Page Prefetch Requests: 0
L1D ROI Sum of L1D PQ occupancy: 0
L1D PREFETCHES PUSHED FROM L2C: 0
L1I TOTAL     ACCESS:    8665376  HIT:    8472887  MISS:     192489  HIT %:    97.7786  MISS %:    2.22136   MPKI: 3.84978
L1I LOAD      ACCESS:    8665376  HIT:    8472887  MISS:     192489  HIT %:    97.7786  MISS %:    2.22136   MPKI: 3.84978
L1I PREFETCH  REQUESTED:          0  ISSUED:          0  USEFUL:          0  USELESS:          0
L1I USEFUL LOAD PREFETCHES:          0 PREFETCH ISSUED TO LOWER LEVEL:          0  ACCURACY: -nan
L1I TIMELY PREFETCHES:          0 LATE PREFETCHES: 0 DROPPED PREFETCHES: 0
L1I PREFETCHES SAME FILL-ORIGIN LEVEL: 0 DIFFERENT FILL-ORIGIN LEVEL: 0
L1I AVERAGE MISS LATENCY: 14.0908 cycles
L1I RQ	ACCESS:   11997368	FORWARD:          0	MERGED:    3240508	TO_CACHE:    8756860

BTB TOTAL     ACCESS:    1670004  HIT:    1576747  MISS:      93257  HIT %:    94.4158  MISS %:    5.58424   MPKI: 1.86514
BTB BRANCH_DIRECT_JUMP	ACCESS:     467675  HIT:     467621  MISS:         54
BTB BRANCH_INDIRECT	ACCESS:          0  HIT:          0  MISS:          0
BTB BRANCH_CONDITIONAL	ACCESS:     916122  HIT:     916014  MISS:        108
BTB BRANCH_DIRECT_CALL	ACCESS:     142923  HIT:     142825  MISS:         98
BTB BRANCH_INDIRECT_CALL	ACCESS:        180  HIT:        178  MISS:          2
BTB BRANCH_RETURN	ACCESS:     143104  HIT:      50109  MISS:      92995
BTB BRANCH_OTHER ACCESS:          0  HIT:          0  MISS:          0

L2C TOTAL     ACCESS:     734562  HIT:     732737  MISS:       1825  HIT %:    99.7516  MISS %:   0.248447   MPKI: 0.0365
L2C LOAD      ACCESS:     683423  HIT:     681656  MISS:       1767  HIT %:    99.7414  MISS %:   0.258551   MPKI: 0.03534
L2C DATA LOAD MPKI: 0.03328
L2C INSTRUCTION LOAD MPKI: 0.00206
L2C RFO       ACCESS:      22484  HIT:      22449  MISS:         35  HIT %:    99.8443  MISS %:   0.155666   MPKI: 0.0007
L2C WRITEBACK ACCESS:      28601  HIT:      28601  MISS:          0  HIT %:        100  MISS %:          0   MPKI: 0
L2C LOAD TRANSLATION ACCESS:         54  HIT:         31  MISS:         23  HIT %:    57.4074  MISS %:    42.5926   MPKI: 0.00046
L2C PREFETCH  REQUESTED:          0  ISSUED:          0  USEFUL:          0  USELESS:          0
L2C USEFUL LOAD PREFETCHES:          0 PREFETCH ISSUED TO LOWER LEVEL:          0  ACCURACY: -nan
L2C TIMELY PREFETCHES:          0 LATE PREFETCHES: 0 DROPPED PREFETCHES: 0
L2C PREFETCHES SAME FILL-ORIGIN LEVEL: 0 DIFFERENT FILL-ORIGIN LEVEL: 0
L2C AVERAGE MISS LATENCY: 123.179 cycles
L2C RQ	ACCESS:     705961	FORWARD:          0	MERGED:          0	TO_CACHE:     705961
L2C WQ	ACCESS:      28601	FORWARD:          0	MERGED:          0	TO_CACHE:      28601

L2C Instructions Evicting Data 23
L2C Translations Evicting Data 8
L2C Data Evicting Data 380
L2C Instructions Evicting Instructions 0
L2C Translations Evicting Instructions 0
L2C Data Evicting Instructions 15
L2C Instructions Evicting Translations 0
L2C Translations Evicting Translations 0
L2C Data Evicting Translations 11
L2C Dense regions hint from L2: 0
PSCL5 TOTAL     ACCESS:         54  HIT:         54  MISS:          0  HIT %:        100  MISS %:          0   MPKI: 0
PSCL5 LOAD TRANSLATION ACCESS:         54  HIT:         54  MISS:          0  HIT %:        100  MISS %:          0   MPKI: 0
PSCL5 PREFETCH  REQUESTED:          0  ISSUED:          0  USEFUL:          0  USELESS:          0
PSCL5 USEFUL LOAD PREFETCHES:          0 PREFETCH ISSUED TO LOWER LEVEL:          0  ACCURACY: -nan
PSCL5 TIMELY PREFETCHES:          0 LATE PREFETCHES: 0 DROPPED PREFETCHES: 0
PSCL5 PREFETCHES SAME FILL-ORIGIN LEVEL: 0 DIFFERENT FILL-ORIGIN LEVEL: 0

PSCL4 TOTAL     ACCESS:         54  HIT:         54  MISS:          0  HIT %:        100  MISS %:          0   MPKI: 0
PSCL4 LOAD TRANSLATION ACCESS:         54  HIT:         54  MISS:          0  HIT %:        100  MISS %:          0   MPKI: 0
PSCL4 PREFETCH  REQUESTED:          0  ISSUED:          0  USEFUL:          0  USELESS:          0
PSCL4 USEFUL LOAD PREFETCHES:          0 PREFETCH ISSUED TO LOWER LEVEL:          0  ACCURACY: -nan
PSCL4 TIMELY PREFETCHES:          0 LATE PREFETCHES: 0 DROPPED PREFETCHES: 0
PSCL4 PREFETCHES SAME FILL-ORIGIN LEVEL: 0 DIFFERENT FILL-ORIGIN LEVEL: 0

PSCL3 TOTAL     ACCESS:         54  HIT:         54  MISS:          0  HIT %:        100  MISS %:          0   MPKI: 0
PSCL3 LOAD TRANSLATION ACCESS:         54  HIT:         54  MISS:          0  HIT %:        100  MISS %:          0   MPKI: 0
PSCL3 PREFETCH  REQUESTED:          0  ISSUED:          0  USEFUL:          0  USELESS:          0
PSCL3 USEFUL LOAD PREFETCHES:          0 PREFETCH ISSUED TO LOWER LEVEL:          0  ACCURACY: -nan
PSCL3 TIMELY PREFETCHES:          0 LATE PREFETCHES: 0 DROPPED PREFETCHES: 0
PSCL3 PREFETCHES SAME FILL-ORIGIN LEVEL: 0 DIFFERENT FILL-ORIGIN LEVEL: 0

PSCL2 TOTAL     ACCESS:         54  HIT:         50  MISS:          4  HIT %:    92.5926  MISS %:    7.40741   MPKI: 8e-05
PSCL2 LOAD TRANSLATION ACCESS:         54  HIT:         50  MISS:          4  HIT %:    92.5926  MISS %:    7.40741   MPKI: 8e-05
PSCL2 PREFETCH  REQUESTED:          0  ISSUED:          0  USEFUL:          0  USELESS:          0
PSCL2 USEFUL LOAD PREFETCHES:          0 PREFETCH ISSUED TO LOWER LEVEL:          0  ACCURACY: -nan
PSCL2 TIMELY PREFETCHES:          0 LATE PREFETCHES: 0 DROPPED PREFETCHES: 0
PSCL2 PREFETCHES SAME FILL-ORIGIN LEVEL: 0 DIFFERENT FILL-ORIGIN LEVEL: 0

LLC TOTAL     ACCESS:       1829  HIT:        170  MISS:       1659  HIT %:     9.2947  MISS %:    90.7053   MPKI: 0.03318
LLC LOAD      ACCESS:       1767  HIT:        162  MISS:       1605  HIT %:    9.16808  MISS %:    90.8319   MPKI: 0.0321
LLC RFO       ACCESS:         35  HIT:          1  MISS:         34  HIT %:    2.85714  MISS %:    97.1429   MPKI: 0.00068
LLC WRITEBACK ACCESS:          4  HIT:          4  MISS:          0  HIT %:        100  MISS %:          0   MPKI: 0
LLC LOAD TRANSLATION ACCESS:         23  HIT:          3  MISS:         20  HIT %:    13.0435  MISS %:    86.9565   MPKI: 0.0004
LLC PREFETCH  REQUESTED:          0  ISSUED:          0  USEFUL:          0  USELESS:          0
LLC USEFUL LOAD PREFETCHES:          0 PREFETCH ISSUED TO LOWER LEVEL:          0  ACCURACY: -nan
LLC TIMELY PREFETCHES:          0 LATE PREFETCHES: 0 DROPPED PREFETCHES: 0
LLC PREFETCHES SAME FILL-ORIGIN LEVEL: 0 DIFFERENT FILL-ORIGIN LEVEL: 0
LLC AVERAGE MISS LATENCY: 102.272 cycles
LLC RQ	ACCESS:       1825	FORWARD:          0	MERGED:          0	TO_CACHE:       1825
LLC WQ	ACCESS:          4	FORWARD:          0	MERGED:          0	TO_CACHE:          4

LLC Dense regions hint to LLC: 0

RAW hits: 894755
Loads Generated: 10749709
Loads sent to L1D: 9854954
Stores Generated: 3062576
Stores sent to L1D: 3062578
Major fault: 0 Minor fault: 313
Allocated PAGES: 313

DRAM Statistics
 CHANNEL 0
 RQ ROW_BUFFER_HIT:       1138  ROW_BUFFER_MISS:        521
 DBUS_CONGESTED:          0
 WQ ROW_BUFFER_HIT:          0  ROW_BUFFER_MISS:          0  FULL:          0

 AVG_CONGESTED_CYCLE: -
 All warmup complete: 2
Channel 0 Bank busy for read cycles: 0
Channel 0 Bank busy for write cycles: 0
Channel 0
Rank 0
0banks busy for read cycles: 65232889
0banks busy for write cycles: 0
1banks busy for read cycles: 74930
1banks busy for write cycles: 0
2banks busy for read cycles: 22614
2banks busy for write cycles: 0
3banks busy for read cycles: 4824
3banks busy for write cycles: 0
4banks busy for read cycles: 105
4banks busy for write cycles: 0
5banks busy for read cycles: 0
5banks busy for write cycles: 0
6banks busy for read cycles: 0
6banks busy for write cycles: 0
7banks busy for read cycles: 0
7banks busy for write cycles: 0
8banks busy for read cycles: 0
8banks busy for write cycles: 0

CPU 0 Branch Prediction Accuracy: 97.5814% MPKI: 2.2396 Average ROB Occupancy at Mispredict: 56.8849
Branch types
NOT_BRANCH: 45369765 90.7395%
BRANCH_DIRECT_JUMP: 467675 0.93535%
BRANCH_INDIRECT: 0 0%
BRANCH_CONDITIONAL: 3876038 7.75208%
BRANCH_DIRECT_CALL: 142923 0.285846%
BRANCH_INDIRECT_CALL: 180 0.00036%
BRANCH_RETURN: 143104 0.286208%
BRANCH_OTHER: 0 0%

DRAM PAGES: 1048576
Allocated PAGES: 313
