
*** ChampSim Multicore Out-of-Order Simulator ***

Warmup Instructions: 50000000
Simulation Instructions: 50000000
Number of CPUs: 1
LLC sets: 2048
LLC ways: 16
Off-chip DRAM Size: 4096 MB Channels: 1 Width: 64-bit Data Rate: 6400 MT/s
CPU 0 runs ../Ligra/ligra_BC.com-lj.ungraph.gcc_6.3.0_O3.drop_26750M.length_250M.champsimtrace.xz
.xz
CPU 0 Bimodal branch predictor
BTB has LRU replacement policy
ITLB has LRU replacement policy
DTLB has LRU replacement policy
STLB has LRU replacement policy
L1I has LRU replacement policy
CPU 0 L1D - Pythia Preftecher 
L1D has LRU replacement policy
--------- This is L2C prefetcher --------------
L2C has LRU replacement policy
LLC has LRU replacement policy
Heartbeat CPU 0 instructions: 10000003 cycles: 3333424 heartbeat IPC: 2.99992 cumulative IPC: 2.99992 (Simulation time: 0 hr 0 min 11 sec) 
Heartbeat CPU 0 instructions: 20000000 cycles: 6666755 heartbeat IPC: 3 cumulative IPC: 2.99996 (Simulation time: 0 hr 0 min 22 sec) 
Heartbeat CPU 0 instructions: 30000003 cycles: 9999744 heartbeat IPC: 3.00031 cumulative IPC: 3.00008 (Simulation time: 0 hr 0 min 33 sec) 
Heartbeat CPU 0 instructions: 40000003 cycles: 13331776 heartbeat IPC: 3.00117 cumulative IPC: 3.00035 (Simulation time: 0 hr 0 min 44 sec) 
Heartbeat CPU 0 instructions: 50000000 cycles: 16664010 heartbeat IPC: 3.00099 cumulative IPC: 3.00048 (Simulation time: 0 hr 0 min 55 sec) 

Warmup complete CPU 0 instructions: 50000003 cycles: 16664011 (Simulation time: 0 hr 0 min 55 sec) 

Heartbeat CPU 0 instructions: 60000000 cycles: 43222421 heartbeat IPC: 0.376529 cumulative IPC: 0.376528 (Simulation time: 0 hr 1 min 13 sec) 
Heartbeat CPU 0 instructions: 70000000 cycles: 69093164 heartbeat IPC: 0.386537 cumulative IPC: 0.381467 (Simulation time: 0 hr 1 min 30 sec) 
Heartbeat CPU 0 instructions: 80000001 cycles: 92478819 heartbeat IPC: 0.427613 cumulative IPC: 0.395701 (Simulation time: 0 hr 1 min 51 sec) 
Heartbeat CPU 0 instructions: 90000002 cycles: 115112017 heartbeat IPC: 0.441829 cumulative IPC: 0.406306 (Simulation time: 0 hr 2 min 24 sec) 
Heartbeat CPU 0 instructions: 100000000 cycles: 138596498 heartbeat IPC: 0.425813 cumulative IPC: 0.410063 (Simulation time: 0 hr 2 min 57 sec) 
Finished CPU 0 instructions: 50000001 cycles: 121932488 cumulative IPC: 0.410063 (Simulation time: 0 hr 2 min 57 sec) 

ChampSim completed all CPUs

Region of Interest Statistics

CPU 0 cumulative IPC: 0.410063 instructions: 50000001 cycles: 121932488
ITLB TOTAL     ACCESS:    7846237  HIT:    7846236  MISS:          1  HIT %:        100  MISS %: 1.2745e-05   MPKI: 2e-05
ITLB LOAD TRANSLATION ACCESS:    7846237  HIT:    7846236  MISS:          1  HIT %:        100  MISS %: 1.2745e-05   MPKI: 2e-05
ITLB PREFETCH  REQUESTED:          0  ISSUED:          0  USEFUL:          0  USELESS:          0
ITLB USEFUL LOAD PREFETCHES:          0 PREFETCH ISSUED TO LOWER LEVEL:          0  ACCURACY: -nan
ITLB TIMELY PREFETCHES:          0 LATE PREFETCHES: 0 DROPPED PREFETCHES: 0
ITLB PREFETCHES SAME FILL-ORIGIN LEVEL: 0 DIFFERENT FILL-ORIGIN LEVEL: 0
ITLB AVERAGE MISS LATENCY: 320 cycles
ITLB RQ	ACCESS:    7846257	FORWARD:          0	MERGED:         21	TO_CACHE:    7846236

DTLB TOTAL     ACCESS:    9065709  HIT:    9038685  MISS:      27024  HIT %:    99.7019  MISS %:    0.29809   MPKI: 0.54048
DTLB LOAD TRANSLATION ACCESS:    9065709  HIT:    9038685  MISS:      27024  HIT %:    99.7019  MISS %:    0.29809   MPKI: 0.54048
DTLB PREFETCH  REQUESTED:          0  ISSUED:          0  USEFUL:          0  USELESS:          0
DTLB USEFUL LOAD PREFETCHES:          0 PREFETCH ISSUED TO LOWER LEVEL:          0  ACCURACY: -nan
DTLB TIMELY PREFETCHES:          0 LATE PREFETCHES: 0 DROPPED PREFETCHES: 0
DTLB PREFETCHES SAME FILL-ORIGIN LEVEL: 0 DIFFERENT FILL-ORIGIN LEVEL: 0
DTLB AVERAGE MISS LATENCY: 155.745 cycles
DTLB RQ	ACCESS:   12833520	FORWARD:          0	MERGED:    3714591	TO_CACHE:    9118929

STLB TOTAL     ACCESS:    1876470  HIT:    1849627  MISS:      26843  HIT %:    98.5695  MISS %:    1.43051   MPKI: 0.53686
STLB LOAD TRANSLATION ACCESS:      27025  HIT:        182  MISS:      26843  HIT %:   0.673451  MISS %:    99.3265   MPKI: 0.53686
STLB TRANSLATION FROM L1D PREFETCHER ACCESS:    1849445  HIT:    1849445  MISS:          0  HIT %:        100  MISS %:          0   MPKI: 0
STLB PREFETCH  REQUESTED:          0  ISSUED:          0  USEFUL:          0  USELESS:          0
STLB USEFUL LOAD PREFETCHES:          0 PREFETCH ISSUED TO LOWER LEVEL:          0  ACCURACY: -nan
STLB TIMELY PREFETCHES:          0 LATE PREFETCHES: 0 DROPPED PREFETCHES: 0
STLB PREFETCHES SAME FILL-ORIGIN LEVEL: 0 DIFFERENT FILL-ORIGIN LEVEL: 0
STLB AVERAGE MISS LATENCY: 147.264 cycles
STLB RQ	ACCESS:    6442874	FORWARD:          0	MERGED:    4566404	TO_CACHE:    1876470

STLB Hit, L1D data hit: 0
STLB Hit, L2C data hit: 0
STLB Hit, LLC data hit: 0
STLB Hit, LLC data miss: 0
STLB STLB hints to L2: 0
L1D TOTAL     ACCESS:   13343360  HIT:   11691423  MISS:    1651937  HIT %:    87.6198  MISS %:    12.3802   MPKI: 33.0387
L1D LOAD      ACCESS:    4402089  HIT:    4019689  MISS:     382400  HIT %:    91.3132  MISS %:    8.68678   MPKI: 7.648
L1D RFO       ACCESS:    2685142  HIT:    1999966  MISS:     685176  HIT %:    74.4827  MISS %:    25.5173   MPKI: 13.7035
L1D PREFETCH  ACCESS:    6256129  HIT:    5671768  MISS:     584361  HIT %:    90.6594  MISS %:    9.34062   MPKI: 11.6872
AGUS PREFETCH L1 MISS: 0
L1D PREFETCH  REQUESTED:   13123912  ISSUED:   13073134  USEFUL:     488019  USELESS:      96229
L1D USEFUL LOAD PREFETCHES:     488019 PREFETCH ISSUED TO LOWER LEVEL:     622967  ACCURACY: 78.3379
L1D TIMELY PREFETCHES:     488019 LATE PREFETCHES: 38603 DROPPED PREFETCHES: 0
L1D PREFETCHES SAME FILL-ORIGIN LEVEL: 622967 DIFFERENT FILL-ORIGIN LEVEL: 0
L1D AVERAGE MISS LATENCY: 282.54 cycles
L1D RQ	ACCESS:   10366956	FORWARD:          0	MERGED:    5844023	TO_CACHE:    4522933
L1D WQ	ACCESS:    8310588	FORWARD:          0	MERGED:          1	TO_CACHE:    8310587
L1D PQ	ACCESS:    6657285	FORWARD:          0	MERGED:     241436	TO_CACHE:    6415849

L1D UNIQUE REGIONS ACCESSED: 0
L1D REGIONS CONFLICTS: 0
L1D Cross Page Prefetch Requests: 0
L1D Same Page Prefetch Requests: 25493469
L1D ROI Sum of L1D PQ occupancy: 114873781
L1D PREFETCHES PUSHED FROM L2C: 0
L1I TOTAL     ACCESS:    7846256  HIT:    7846241  MISS:         15  HIT %:    99.9998  MISS %: 0.000191174   MPKI: 0.0003
L1I LOAD      ACCESS:    7846256  HIT:    7846241  MISS:         15  HIT %:    99.9998  MISS %: 0.000191174   MPKI: 0.0003
L1I PREFETCH  REQUESTED:          0  ISSUED:          0  USEFUL:          0  USELESS:          0
L1I USEFUL LOAD PREFETCHES:          0 PREFETCH ISSUED TO LOWER LEVEL:          0  ACCURACY: -nan
L1I TIMELY PREFETCHES:          0 LATE PREFETCHES: 0 DROPPED PREFETCHES: 0
L1I PREFETCHES SAME FILL-ORIGIN LEVEL: 0 DIFFERENT FILL-ORIGIN LEVEL: 0
L1I AVERAGE MISS LATENCY: 260.333 cycles
L1I RQ	ACCESS:   14257415	FORWARD:          0	MERGED:    6411158	TO_CACHE:    7846257

BTB TOTAL     ACCESS:    8792349  HIT:    8792267  MISS:         82  HIT %:    99.9991  MISS %: 0.000932629   MPKI: 0.00164
BTB BRANCH_DIRECT_JUMP	ACCESS:         44  HIT:         24  MISS:         20
BTB BRANCH_INDIRECT	ACCESS:          0  HIT:          0  MISS:          0
BTB BRANCH_CONDITIONAL	ACCESS:    8792291  HIT:    8792241  MISS:         50
BTB BRANCH_DIRECT_CALL	ACCESS:          6  HIT:          1  MISS:          5
BTB BRANCH_INDIRECT_CALL	ACCESS:          0  HIT:          0  MISS:          0
BTB BRANCH_RETURN	ACCESS:          8  HIT:          1  MISS:          7
BTB BRANCH_OTHER ACCESS:          0  HIT:          0  MISS:          0

L2C TOTAL     ACCESS:    2364246  HIT:     709845  MISS:    1654401  HIT %:    30.0242  MISS %:    69.9758   MPKI: 33.088
L2C LOAD      ACCESS:     343812  HIT:         69  MISS:     343743  HIT %:  0.0200691  MISS %:    99.9799   MPKI: 6.87486
L2C DATA LOAD MPKI: 6.87456
L2C INSTRUCTION LOAD MPKI: 0.0003
L2C RFO       ACCESS:     685176  HIT:         14  MISS:     685162  HIT %: 0.00204327  MISS %:     99.998   MPKI: 13.7032
L2C PREFETCH  ACCESS:     622964  HIT:        904  MISS:     622060  HIT %:   0.145113  MISS %:    99.8549   MPKI: 12.4412
AGUS PREFETCH L1 MISS: 0
L2C DATA PREFETCH MPKI: 12.4412
L2C INSTRUCTION PREFETCH MPKI: 0
L2C WRITEBACK ACCESS:     685448  HIT:     685446  MISS:          2  HIT %:    99.9997  MISS %: 0.00029178   MPKI: 4e-05
L2C LOAD TRANSLATION ACCESS:      26846  HIT:      23412  MISS:       3434  HIT %:    87.2085  MISS %:    12.7915   MPKI: 0.06868
L2C PREFETCH  REQUESTED:          0  ISSUED:          0  USEFUL:         83  USELESS:     621137
L2C USEFUL LOAD PREFETCHES:         83 PREFETCH ISSUED TO LOWER LEVEL:     622063  ACCURACY: 0.0133427
L2C TIMELY PREFETCHES:         83 LATE PREFETCHES: 0 DROPPED PREFETCHES: 0
L2C PREFETCHES SAME FILL-ORIGIN LEVEL: 0 DIFFERENT FILL-ORIGIN LEVEL: 0
L2C AVERAGE MISS LATENCY: 266.683 cycles
L2C RQ	ACCESS:    1055837	FORWARD:          0	MERGED:          0	TO_CACHE:    1055837
L2C WQ	ACCESS:     685448	FORWARD:          0	MERGED:          0	TO_CACHE:     685448
L2C PQ	ACCESS:     622967	FORWARD:          0	MERGED:          0	TO_CACHE:     622967

L2C Instructions Evicting Data 15
L2C Translations Evicting Data 3432
L2C Data Evicting Data 1647513
L2C Instructions Evicting Instructions 0
L2C Translations Evicting Instructions 0
L2C Data Evicting Instructions 15
L2C Instructions Evicting Translations 0
L2C Translations Evicting Translations 2
L2C Data Evicting Translations 3422
L2C Dense regions hint from L2: 0
PSCL5 TOTAL     ACCESS:      26843  HIT:      26843  MISS:          0  HIT %:        100  MISS %:          0   MPKI: 0
PSCL5 LOAD TRANSLATION ACCESS:      26843  HIT:      26843  MISS:          0  HIT %:        100  MISS %:          0   MPKI: 0
PSCL5 PREFETCH  REQUESTED:          0  ISSUED:          0  USEFUL:          0  USELESS:          0
PSCL5 USEFUL LOAD PREFETCHES:          0 PREFETCH ISSUED TO LOWER LEVEL:          0  ACCURACY: -nan
PSCL5 TIMELY PREFETCHES:          0 LATE PREFETCHES: 0 DROPPED PREFETCHES: 0
PSCL5 PREFETCHES SAME FILL-ORIGIN LEVEL: 0 DIFFERENT FILL-ORIGIN LEVEL: 0

PSCL4 TOTAL     ACCESS:      26843  HIT:      26843  MISS:          0  HIT %:        100  MISS %:          0   MPKI: 0
PSCL4 LOAD TRANSLATION ACCESS:      26843  HIT:      26843  MISS:          0  HIT %:        100  MISS %:          0   MPKI: 0
PSCL4 PREFETCH  REQUESTED:          0  ISSUED:          0  USEFUL:          0  USELESS:          0
PSCL4 USEFUL LOAD PREFETCHES:          0 PREFETCH ISSUED TO LOWER LEVEL:          0  ACCURACY: -nan
PSCL4 TIMELY PREFETCHES:          0 LATE PREFETCHES: 0 DROPPED PREFETCHES: 0
PSCL4 PREFETCHES SAME FILL-ORIGIN LEVEL: 0 DIFFERENT FILL-ORIGIN LEVEL: 0

PSCL3 TOTAL     ACCESS:      26843  HIT:      26843  MISS:          0  HIT %:        100  MISS %:          0   MPKI: 0
PSCL3 LOAD TRANSLATION ACCESS:      26843  HIT:      26843  MISS:          0  HIT %:        100  MISS %:          0   MPKI: 0
PSCL3 PREFETCH  REQUESTED:          0  ISSUED:          0  USEFUL:          0  USELESS:          0
PSCL3 USEFUL LOAD PREFETCHES:          0 PREFETCH ISSUED TO LOWER LEVEL:          0  ACCURACY: -nan
PSCL3 TIMELY PREFETCHES:          0 LATE PREFETCHES: 0 DROPPED PREFETCHES: 0
PSCL3 PREFETCHES SAME FILL-ORIGIN LEVEL: 0 DIFFERENT FILL-ORIGIN LEVEL: 0

PSCL2 TOTAL     ACCESS:      26843  HIT:      26790  MISS:         53  HIT %:    99.8026  MISS %:   0.197444   MPKI: 0.00106
PSCL2 LOAD TRANSLATION ACCESS:      26843  HIT:      26790  MISS:         53  HIT %:    99.8026  MISS %:   0.197444   MPKI: 0.00106
PSCL2 PREFETCH  REQUESTED:          0  ISSUED:          0  USEFUL:          0  USELESS:          0
PSCL2 USEFUL LOAD PREFETCHES:          0 PREFETCH ISSUED TO LOWER LEVEL:          0  ACCURACY: -nan
PSCL2 TIMELY PREFETCHES:          0 LATE PREFETCHES: 0 DROPPED PREFETCHES: 0
PSCL2 PREFETCHES SAME FILL-ORIGIN LEVEL: 0 DIFFERENT FILL-ORIGIN LEVEL: 0

LLC TOTAL     ACCESS:    2342666  HIT:     688594  MISS:    1654072  HIT %:    29.3936  MISS %:    70.6064   MPKI: 33.0814
LLC LOAD      ACCESS:     343743  HIT:         40  MISS:     343703  HIT %:  0.0116366  MISS %:    99.9884   MPKI: 6.87406
LLC RFO       ACCESS:     685162  HIT:          0  MISS:     685162  HIT %:          0  MISS %:        100   MPKI: 13.7032
LLC PREFETCH  ACCESS:     622060  HIT:        293  MISS:     621767  HIT %:  0.0471016  MISS %:    99.9529   MPKI: 12.4353
AGUS PREFETCH L1 MISS: 0
LLC WRITEBACK ACCESS:     688267  HIT:     688260  MISS:          7  HIT %:     99.999  MISS %: 0.00101705   MPKI: 0.00014
LLC LOAD TRANSLATION ACCESS:       3434  HIT:          1  MISS:       3433  HIT %:  0.0291206  MISS %:    99.9709   MPKI: 0.06866
LLC PREFETCH  REQUESTED:          0  ISSUED:          0  USEFUL:         35  USELESS:     630097
LLC USEFUL LOAD PREFETCHES:         35 PREFETCH ISSUED TO LOWER LEVEL:     621770  ACCURACY: 0.00562909
LLC TIMELY PREFETCHES:         35 LATE PREFETCHES: 0 DROPPED PREFETCHES: 0
LLC PREFETCHES SAME FILL-ORIGIN LEVEL: 0 DIFFERENT FILL-ORIGIN LEVEL: 0
LLC AVERAGE MISS LATENCY: 235.476 cycles
LLC RQ	ACCESS:    1032341	FORWARD:          0	MERGED:          0	TO_CACHE:    1032341
LLC WQ	ACCESS:     688267	FORWARD:          0	MERGED:          0	TO_CACHE:     688267
LLC PQ	ACCESS:     622063	FORWARD:          0	MERGED:          0	TO_CACHE:     622063

LLC Dense regions hint to LLC: 0

RAW hits: 20
Loads Generated: 10366976
Loads sent to L1D: 10366956
Stores Generated: 8310592
Stores sent to L1D: 8310588
Major fault: 0 Minor fault: 27049
Allocated PAGES: 27049
CPU 0 L1D nextline prefetcher final stats
 Action = 30 : 243751
 Action = 23 : 208846
 Action = 16 : 162971
 Action = 11 : 167893
 Action = 10 : 168006
 Action = 22 : 189897
 Action = 5 : 152394
 Action = 4 : 150364
 Action = 32 : 456745
 Action = -3 : 169695
 Action = 12 : 212971
 Action = -6 : 4756097
 Action = 3 : 150314
 Action = 1 : 148579
 Action = -1 : 164248
 Action = 0 : 4675770
---------------Prefetch degree counts-----------------------
 prefetch degree = 5 : 2485
 number of times low bandwidth is  10160830
number of times high bandwidth is 1559107
0 : 172832
67 : 435552
12 : 438144
36 : 451776
101 : 445760
48 : 438432
106 : 450944
77 : 442912
5 : 445344
112 : 448000
8 : 448288
113 : 445952
11 : 444320
14 : 444512
7 : 441024
26 : 446080
29 : 446368
117 : 450624
69 : 442560
100 : 440384
89 : 442304
88 : 448448
90 : 442368
2 : 273728
62 : 444032
4 : 446528
98 : 440672
65 : 448928
94 : 442528
41 : 445632
30 : 447936
72 : 452320
92 : 449056
6 : 442112
24 : 442144
22 : 441184
45 : 447808
39 : 449760
57 : 452672
116 : 443264
81 : 448576
54 : 449152
35 : 448992
18 : 442240
102 : 445728
17 : 442720
103 : 447040
23 : 440736
95 : 442848
21 : 455872
83 : 448736
27 : 444960
52 : 447040
15 : 450080
32 : 446272
111 : 446368
50 : 450624
87 : 446144
79 : 447008
28 : 443616
107 : 453184
49 : 444864
86 : 447936
58 : 457184
119 : 437152
40 : 443936
34 : 447104
85 : 446976
38 : 449568
1 : 390158400
80 : 6516896
110 : 441408
31 : 450048
68 : 6524736
105 : 448736
3 : 447104
82 : 449664
37 : 303117184
74 : 6516544
115 : 452640
78 : 6521184
43 : 458880
122 : 450720
121 : 442336
42 : 448512
84 : 6521152
55 : 438176
127 : 446048
53 : 445344
75 : 447072
109 : 446720
120 : 445856
76 : 447936
66 : 453216
19 : 447424
99 : 446208
20 : 446400
46 : 445856
125 : 445920
114 : 439264
33 : 454432
108 : 444512
61 : 448544
123 : 438976
44 : 446880
71 : 450656
91 : 443136
56 : 448576
124 : 435168
104 : 449888
25 : 446048
97 : 446976
70 : 444896
47 : 438176
126 : 449984
16 : 448000
73 : 445920
63 : 453120
9 : 449216
118 : 442048
10 : 441376
13 : 451488
51 : 437600
59 : 443136
93 : 452032
60 : 447840
96 : 447072
64 : 447456

DRAM Statistics
 CHANNEL 0
 RQ ROW_BUFFER_HIT:     777392  ROW_BUFFER_MISS:     876675
 DBUS_CONGESTED:        282
 WQ ROW_BUFFER_HIT:     169403  ROW_BUFFER_MISS:     514387  FULL:          0

 AVG_CONGESTED_CYCLE: 6
 All warmup complete: 2
Channel 0 Bank busy for read cycles: 0
Channel 0 Bank busy for write cycles: 0
Channel 0
Rank 0
0banks busy for read cycles: 45043409
0banks busy for write cycles: 57621
1banks busy for read cycles: 17747880
1banks busy for write cycles: 8436070
2banks busy for read cycles: 5889144
2banks busy for write cycles: 1099659
3banks busy for read cycles: 5482434
3banks busy for write cycles: 481673
4banks busy for read cycles: 5427699
4banks busy for write cycles: 318849
5banks busy for read cycles: 5429027
5banks busy for write cycles: 243972
6banks busy for read cycles: 5114559
6banks busy for write cycles: 217094
7banks busy for read cycles: 4327676
7banks busy for write cycles: 875109
8banks busy for read cycles: 2559519
8banks busy for write cycles: 13181095

CPU 0 Branch Prediction Accuracy: 87.8141% MPKI: 21.4311 Average ROB Occupancy at Mispredict: 3.37097
Branch types
NOT_BRANCH: 41206902 82.4138%
BRANCH_DIRECT_JUMP: 44 8.8e-05%
BRANCH_INDIRECT: 0 0%
BRANCH_CONDITIONAL: 8793344 17.5867%
BRANCH_DIRECT_CALL: 6 1.2e-05%
BRANCH_INDIRECT_CALL: 0 0%
BRANCH_RETURN: 8 1.6e-05%
BRANCH_OTHER: 0 0%

DRAM PAGES: 1048576
Allocated PAGES: 27049
