
*** ChampSim Multicore Out-of-Order Simulator ***

Warmup Instructions: 50000000
Simulation Instructions: 50000000
Number of CPUs: 1
LLC sets: 2048
LLC ways: 16
Off-chip DRAM Size: 4096 MB Channels: 1 Width: 64-bit Data Rate: 6400 MT/s
CPU 0 runs ../Ligra/ligra_BC.com-lj.ungraph.gcc_6.3.0_O3.drop_15500M.length_250M.champsimtrace.xz
.xz
CPU 0 Bimodal branch predictor
BTB has LRU replacement policy
ITLB has LRU replacement policy
DTLB has LRU replacement policy
STLB has LRU replacement policy
L1I has LRU replacement policy
CPU 0 L1D - Pythia Preftecher 
L1D has LRU replacement policy
--------- This is L2C prefetcher --------------
L2C has LRU replacement policy
LLC has LRU replacement policy
Heartbeat CPU 0 instructions: 10000003 cycles: 2666964 heartbeat IPC: 3.74958 cumulative IPC: 3.74958 (Simulation time: 0 hr 0 min 9 sec) 
Heartbeat CPU 0 instructions: 20000000 cycles: 5333629 heartbeat IPC: 3.75 cumulative IPC: 3.74979 (Simulation time: 0 hr 0 min 18 sec) 
Heartbeat CPU 0 instructions: 30000003 cycles: 8000294 heartbeat IPC: 3.75 cumulative IPC: 3.74986 (Simulation time: 0 hr 0 min 27 sec) 
Heartbeat CPU 0 instructions: 40000003 cycles: 10666960 heartbeat IPC: 3.75 cumulative IPC: 3.7499 (Simulation time: 0 hr 0 min 36 sec) 
Heartbeat CPU 0 instructions: 50000001 cycles: 13333626 heartbeat IPC: 3.75 cumulative IPC: 3.74992 (Simulation time: 0 hr 0 min 45 sec) 

Warmup complete CPU 0 instructions: 50000001 cycles: 13333626 (Simulation time: 0 hr 0 min 45 sec) 

Heartbeat CPU 0 instructions: 60000002 cycles: 25824141 heartbeat IPC: 0.800608 cumulative IPC: 0.800608 (Simulation time: 0 hr 1 min 4 sec) 
Heartbeat CPU 0 instructions: 70000000 cycles: 41116744 heartbeat IPC: 0.653911 cumulative IPC: 0.719862 (Simulation time: 0 hr 1 min 19 sec) 
Heartbeat CPU 0 instructions: 80000000 cycles: 51795935 heartbeat IPC: 0.936401 cumulative IPC: 0.779984 (Simulation time: 0 hr 1 min 34 sec) 
Heartbeat CPU 0 instructions: 90000000 cycles: 64647430 heartbeat IPC: 0.77812 cumulative IPC: 0.779517 (Simulation time: 0 hr 1 min 51 sec) 
Heartbeat CPU 0 instructions: 100000000 cycles: 75351414 heartbeat IPC: 0.934232 cumulative IPC: 0.80622 (Simulation time: 0 hr 2 min 6 sec) 
Finished CPU 0 instructions: 50000003 cycles: 62017792 cumulative IPC: 0.80622 (Simulation time: 0 hr 2 min 6 sec) 

ChampSim completed all CPUs

Region of Interest Statistics

CPU 0 cumulative IPC: 0.80622 instructions: 50000003 cycles: 62017792
ITLB TOTAL     ACCESS:    6897393  HIT:    6897393  MISS:          0  HIT %:        100  MISS %:          0   MPKI: 0
ITLB LOAD TRANSLATION ACCESS:    6897393  HIT:    6897393  MISS:          0  HIT %:        100  MISS %:          0   MPKI: 0
ITLB PREFETCH  REQUESTED:          0  ISSUED:          0  USEFUL:          0  USELESS:          0
ITLB USEFUL LOAD PREFETCHES:          0 PREFETCH ISSUED TO LOWER LEVEL:          0  ACCURACY: -nan
ITLB TIMELY PREFETCHES:          0 LATE PREFETCHES: 0 DROPPED PREFETCHES: 0
ITLB PREFETCHES SAME FILL-ORIGIN LEVEL: 0 DIFFERENT FILL-ORIGIN LEVEL: 0
ITLB AVERAGE MISS LATENCY: -nan cycles
ITLB RQ	ACCESS:   10580498	FORWARD:          0	MERGED:    3683106	TO_CACHE:    6897392

DTLB TOTAL     ACCESS:    7946578  HIT:    7926445  MISS:      20133  HIT %:    99.7466  MISS %:   0.253354   MPKI: 0.40266
DTLB LOAD TRANSLATION ACCESS:    7946578  HIT:    7926445  MISS:      20133  HIT %:    99.7466  MISS %:   0.253354   MPKI: 0.40266
DTLB PREFETCH  REQUESTED:          0  ISSUED:          0  USEFUL:          0  USELESS:          0
DTLB USEFUL LOAD PREFETCHES:          0 PREFETCH ISSUED TO LOWER LEVEL:          0  ACCURACY: -nan
DTLB TIMELY PREFETCHES:          0 LATE PREFETCHES: 0 DROPPED PREFETCHES: 0
DTLB PREFETCHES SAME FILL-ORIGIN LEVEL: 0 DIFFERENT FILL-ORIGIN LEVEL: 0
DTLB AVERAGE MISS LATENCY: 160.33 cycles
DTLB RQ	ACCESS:   12502614	FORWARD:          0	MERGED:    4463374	TO_CACHE:    8039240

STLB TOTAL     ACCESS:    1901817  HIT:    1881684  MISS:      20133  HIT %:    98.9414  MISS %:    1.05862   MPKI: 0.40266
STLB LOAD TRANSLATION ACCESS:      20133  HIT:          0  MISS:      20133  HIT %:          0  MISS %:        100   MPKI: 0.40266
STLB TRANSLATION FROM L1D PREFETCHER ACCESS:    1881684  HIT:    1881684  MISS:          0  HIT %:        100  MISS %:          0   MPKI: 0
STLB PREFETCH  REQUESTED:          0  ISSUED:          0  USEFUL:          0  USELESS:          0
STLB USEFUL LOAD PREFETCHES:          0 PREFETCH ISSUED TO LOWER LEVEL:          0  ACCURACY: -nan
STLB TIMELY PREFETCHES:          0 LATE PREFETCHES: 0 DROPPED PREFETCHES: 0
STLB PREFETCHES SAME FILL-ORIGIN LEVEL: 0 DIFFERENT FILL-ORIGIN LEVEL: 0
STLB AVERAGE MISS LATENCY: 151.316 cycles
STLB RQ	ACCESS:    8865967	FORWARD:          0	MERGED:    6964149	TO_CACHE:    1901818

STLB Hit, L1D data hit: 0
STLB Hit, L2C data hit: 0
STLB Hit, LLC data hit: 0
STLB Hit, LLC data miss: 0
STLB STLB hints to L2: 0
L1D TOTAL     ACCESS:   10724650  HIT:    9431199  MISS:    1293451  HIT %:    87.9395  MISS %:    12.0605   MPKI: 25.869
L1D LOAD      ACCESS:    2470909  HIT:    2427516  MISS:      43393  HIT %:    98.2438  MISS %:    1.75616   MPKI: 0.86786
L1D RFO       ACCESS:    1135299  HIT:     150047  MISS:     985252  HIT %:    13.2165  MISS %:    86.7835   MPKI: 19.705
L1D PREFETCH  ACCESS:    7118442  HIT:    6853636  MISS:     264806  HIT %:      96.28  MISS %:       3.72   MPKI: 5.29612
AGUS PREFETCH L1 MISS: 0
L1D PREFETCH  REQUESTED:   18433487  ISSUED:   18422025  USEFUL:     258415  USELESS:       6387
L1D USEFUL LOAD PREFETCHES:     258415 PREFETCH ISSUED TO LOWER LEVEL:     266311  ACCURACY: 97.035
L1D TIMELY PREFETCHES:     258415 LATE PREFETCHES: 1504 DROPPED PREFETCHES: 0
L1D PREFETCHES SAME FILL-ORIGIN LEVEL: 266311 DIFFERENT FILL-ORIGIN LEVEL: 0
L1D AVERAGE MISS LATENCY: 274.179 cycles
L1D RQ	ACCESS:    5316900	FORWARD:          0	MERGED:    2734933	TO_CACHE:    2581967
L1D WQ	ACCESS:    9920647	FORWARD:          0	MERGED:          0	TO_CACHE:    9920647
L1D PQ	ACCESS:    9576191	FORWARD:          0	MERGED:     730357	TO_CACHE:    8845834

L1D UNIQUE REGIONS ACCESSED: 0
L1D REGIONS CONFLICTS: 0
L1D Cross Page Prefetch Requests: 0
L1D Same Page Prefetch Requests: 31679414
L1D ROI Sum of L1D PQ occupancy: 124738122
L1D PREFETCHES PUSHED FROM L2C: 0
L1I TOTAL     ACCESS:   10580498  HIT:   10580489  MISS:          9  HIT %:    99.9999  MISS %: 8.50622e-05   MPKI: 0.00018
L1I LOAD      ACCESS:   10580498  HIT:   10580489  MISS:          9  HIT %:    99.9999  MISS %: 8.50622e-05   MPKI: 0.00018
L1I PREFETCH  REQUESTED:          0  ISSUED:          0  USEFUL:          0  USELESS:          0
L1I USEFUL LOAD PREFETCHES:          0 PREFETCH ISSUED TO LOWER LEVEL:          0  ACCURACY: -nan
L1I TIMELY PREFETCHES:          0 LATE PREFETCHES: 0 DROPPED PREFETCHES: 0
L1I PREFETCHES SAME FILL-ORIGIN LEVEL: 0 DIFFERENT FILL-ORIGIN LEVEL: 0
L1I AVERAGE MISS LATENCY: 308.111 cycles
L1I RQ	ACCESS:   15106816	FORWARD:          0	MERGED:    4526318	TO_CACHE:   10580498

BTB TOTAL     ACCESS:    5571283  HIT:    5571235  MISS:         48  HIT %:    99.9991  MISS %: 0.000861561   MPKI: 0.00096
BTB BRANCH_DIRECT_JUMP	ACCESS:         20  HIT:          9  MISS:         11
BTB BRANCH_INDIRECT	ACCESS:          0  HIT:          0  MISS:          0
BTB BRANCH_CONDITIONAL	ACCESS:    5571255  HIT:    5571224  MISS:         31
BTB BRANCH_DIRECT_CALL	ACCESS:          4  HIT:          1  MISS:          3
BTB BRANCH_INDIRECT_CALL	ACCESS:          0  HIT:          0  MISS:          0
BTB BRANCH_RETURN	ACCESS:          4  HIT:          1  MISS:          3
BTB BRANCH_OTHER ACCESS:          0  HIT:          0  MISS:          0

L2C TOTAL     ACCESS:    2299021  HIT:    1009130  MISS:    1289891  HIT %:    43.8939  MISS %:    56.1061   MPKI: 25.7978
L2C LOAD      ACCESS:      41898  HIT:        523  MISS:      41375  HIT %:    1.24827  MISS %:    98.7517   MPKI: 0.8275
L2C DATA LOAD MPKI: 0.82732
L2C INSTRUCTION LOAD MPKI: 0.00018
L2C RFO       ACCESS:     985252  HIT:          0  MISS:     985252  HIT %:          0  MISS %:        100   MPKI: 19.705
L2C PREFETCH  ACCESS:     266310  HIT:       5667  MISS:     260643  HIT %:    2.12797  MISS %:     97.872   MPKI: 5.21286
AGUS PREFETCH L1 MISS: 0
L2C DATA PREFETCH MPKI: 5.21286
L2C INSTRUCTION PREFETCH MPKI: 0
L2C WRITEBACK ACCESS:     985419  HIT:     985419  MISS:          0  HIT %:        100  MISS %:          0   MPKI: 0
L2C LOAD TRANSLATION ACCESS:      20142  HIT:      17521  MISS:       2621  HIT %:    86.9874  MISS %:    13.0126   MPKI: 0.05242
L2C PREFETCH  REQUESTED:          0  ISSUED:          0  USEFUL:        519  USELESS:     258487
L2C USEFUL LOAD PREFETCHES:        519 PREFETCH ISSUED TO LOWER LEVEL:     260643  ACCURACY: 0.199123
L2C TIMELY PREFETCHES:        519 LATE PREFETCHES: 0 DROPPED PREFETCHES: 0
L2C PREFETCHES SAME FILL-ORIGIN LEVEL: 0 DIFFERENT FILL-ORIGIN LEVEL: 0
L2C AVERAGE MISS LATENCY: 260.184 cycles
L2C RQ	ACCESS:    1047294	FORWARD:          0	MERGED:          0	TO_CACHE:    1047294
L2C WQ	ACCESS:     985419	FORWARD:          0	MERGED:          0	TO_CACHE:     985419
L2C PQ	ACCESS:     266311	FORWARD:          0	MERGED:          0	TO_CACHE:     266311

L2C Instructions Evicting Data 9
L2C Translations Evicting Data 2620
L2C Data Evicting Data 1284633
L2C Instructions Evicting Instructions 0
L2C Translations Evicting Instructions 0
L2C Data Evicting Instructions 9
L2C Instructions Evicting Translations 0
L2C Translations Evicting Translations 1
L2C Data Evicting Translations 2619
L2C Dense regions hint from L2: 0
PSCL5 TOTAL     ACCESS:      20133  HIT:      20133  MISS:          0  HIT %:        100  MISS %:          0   MPKI: 0
PSCL5 LOAD TRANSLATION ACCESS:      20133  HIT:      20133  MISS:          0  HIT %:        100  MISS %:          0   MPKI: 0
PSCL5 PREFETCH  REQUESTED:          0  ISSUED:          0  USEFUL:          0  USELESS:          0
PSCL5 USEFUL LOAD PREFETCHES:          0 PREFETCH ISSUED TO LOWER LEVEL:          0  ACCURACY: -nan
PSCL5 TIMELY PREFETCHES:          0 LATE PREFETCHES: 0 DROPPED PREFETCHES: 0
PSCL5 PREFETCHES SAME FILL-ORIGIN LEVEL: 0 DIFFERENT FILL-ORIGIN LEVEL: 0

PSCL4 TOTAL     ACCESS:      20133  HIT:      20133  MISS:          0  HIT %:        100  MISS %:          0   MPKI: 0
PSCL4 LOAD TRANSLATION ACCESS:      20133  HIT:      20133  MISS:          0  HIT %:        100  MISS %:          0   MPKI: 0
PSCL4 PREFETCH  REQUESTED:          0  ISSUED:          0  USEFUL:          0  USELESS:          0
PSCL4 USEFUL LOAD PREFETCHES:          0 PREFETCH ISSUED TO LOWER LEVEL:          0  ACCURACY: -nan
PSCL4 TIMELY PREFETCHES:          0 LATE PREFETCHES: 0 DROPPED PREFETCHES: 0
PSCL4 PREFETCHES SAME FILL-ORIGIN LEVEL: 0 DIFFERENT FILL-ORIGIN LEVEL: 0

PSCL3 TOTAL     ACCESS:      20133  HIT:      20133  MISS:          0  HIT %:        100  MISS %:          0   MPKI: 0
PSCL3 LOAD TRANSLATION ACCESS:      20133  HIT:      20133  MISS:          0  HIT %:        100  MISS %:          0   MPKI: 0
PSCL3 PREFETCH  REQUESTED:          0  ISSUED:          0  USEFUL:          0  USELESS:          0
PSCL3 USEFUL LOAD PREFETCHES:          0 PREFETCH ISSUED TO LOWER LEVEL:          0  ACCURACY: -nan
PSCL3 TIMELY PREFETCHES:          0 LATE PREFETCHES: 0 DROPPED PREFETCHES: 0
PSCL3 PREFETCHES SAME FILL-ORIGIN LEVEL: 0 DIFFERENT FILL-ORIGIN LEVEL: 0

PSCL2 TOTAL     ACCESS:      20133  HIT:      20085  MISS:         48  HIT %:    99.7616  MISS %:   0.238415   MPKI: 0.00096
PSCL2 LOAD TRANSLATION ACCESS:      20133  HIT:      20085  MISS:         48  HIT %:    99.7616  MISS %:   0.238415   MPKI: 0.00096
PSCL2 PREFETCH  REQUESTED:          0  ISSUED:          0  USEFUL:          0  USELESS:          0
PSCL2 USEFUL LOAD PREFETCHES:          0 PREFETCH ISSUED TO LOWER LEVEL:          0  ACCURACY: -nan
PSCL2 TIMELY PREFETCHES:          0 LATE PREFETCHES: 0 DROPPED PREFETCHES: 0
PSCL2 PREFETCHES SAME FILL-ORIGIN LEVEL: 0 DIFFERENT FILL-ORIGIN LEVEL: 0

LLC TOTAL     ACCESS:    2276821  HIT:     987121  MISS:    1289700  HIT %:    43.3552  MISS %:    56.6448   MPKI: 25.794
LLC LOAD      ACCESS:      41375  HIT:          8  MISS:      41367  HIT %:  0.0193353  MISS %:    99.9807   MPKI: 0.82734
LLC RFO       ACCESS:     985252  HIT:          0  MISS:     985252  HIT %:          0  MISS %:        100   MPKI: 19.705
LLC PREFETCH  ACCESS:     260643  HIT:        135  MISS:     260508  HIT %:   0.051795  MISS %:    99.9482   MPKI: 5.21016
AGUS PREFETCH L1 MISS: 0
LLC WRITEBACK ACCESS:     986930  HIT:     986930  MISS:          0  HIT %:        100  MISS %:          0   MPKI: 0
LLC LOAD TRANSLATION ACCESS:       2621  HIT:         48  MISS:       2573  HIT %:    1.83136  MISS %:    98.1686   MPKI: 0.05146
LLC PREFETCH  REQUESTED:          0  ISSUED:          0  USEFUL:          8  USELESS:     254156
LLC USEFUL LOAD PREFETCHES:          8 PREFETCH ISSUED TO LOWER LEVEL:     260508  ACCURACY: 0.00307092
LLC TIMELY PREFETCHES:          8 LATE PREFETCHES: 0 DROPPED PREFETCHES: 0
LLC PREFETCHES SAME FILL-ORIGIN LEVEL: 0 DIFFERENT FILL-ORIGIN LEVEL: 0
LLC AVERAGE MISS LATENCY: 228.697 cycles
LLC RQ	ACCESS:    1029250	FORWARD:          0	MERGED:          0	TO_CACHE:    1029250
LLC WQ	ACCESS:     986930	FORWARD:          0	MERGED:          0	TO_CACHE:     986930
LLC PQ	ACCESS:     260643	FORWARD:          0	MERGED:          0	TO_CACHE:     260643

LLC Dense regions hint to LLC: 0

RAW hits: 4
Loads Generated: 5316904
Loads sent to L1D: 5316900
Stores Generated: 9920651
Stores sent to L1D: 9920647
Major fault: 0 Minor fault: 42653
Allocated PAGES: 42653
CPU 0 L1D nextline prefetcher final stats
 Action = 30 : 62079
 Action = 23 : 110125
 Action = 16 : 264263
 Action = 11 : 242665
 Action = 10 : 183896
 Action = 22 : 198613
 Action = 5 : 175586
 Action = 4 : 132089
 Action = 32 : 272297
 Action = -3 : 339513
 Action = 12 : 310132
 Action = -6 : 322639
 Action = 3 : 168955
 Action = 1 : 4775790
 Action = -1 : 271242
 Action = 0 : 1157350
---------------Prefetch degree counts-----------------------
 prefetch degree = 5 : 1834
 number of times low bandwidth is  6099775
number of times high bandwidth is 2447039

DRAM Statistics
 CHANNEL 0
 RQ ROW_BUFFER_HIT:     410678  ROW_BUFFER_MISS:     879021
 DBUS_CONGESTED:        994
 WQ ROW_BUFFER_HIT:     316688  ROW_BUFFER_MISS:     674971  FULL:          0

 AVG_CONGESTED_CYCLE: 5
 All warmup complete: 2
Channel 0 Bank busy for read cycles: 0
Channel 0 Bank busy for write cycles: 0
Channel 0
Rank 0
0banks busy for read cycles: 76527
0banks busy for write cycles: 1
1banks busy for read cycles: 5003457
1banks busy for write cycles: 133111
2banks busy for read cycles: 9384569
2banks busy for write cycles: 132854
3banks busy for read cycles: 7979075
3banks busy for write cycles: 132632
4banks busy for read cycles: 4114012
4banks busy for write cycles: 131804
5banks busy for read cycles: 3308228
5banks busy for write cycles: 131647
6banks busy for read cycles: 3388472
6banks busy for write cycles: 140903
7banks busy for read cycles: 3137403
7banks busy for write cycles: 1213070
8banks busy for read cycles: 4447690
8banks busy for write cycles: 19162338

CPU 0 Branch Prediction Accuracy: 99.1289% MPKI: 1.09324 Average ROB Occupancy at Mispredict: 52.439
Branch types
NOT_BRANCH: 43724674 87.4493%
BRANCH_DIRECT_JUMP: 20 4e-05%
BRANCH_INDIRECT: 0 0%
BRANCH_CONDITIONAL: 6275318 12.5506%
BRANCH_DIRECT_CALL: 4 8e-06%
BRANCH_INDIRECT_CALL: 0 0%
BRANCH_RETURN: 4 8e-06%
BRANCH_OTHER: 0 0%

DRAM PAGES: 1048576
Allocated PAGES: 42653
