
*** ChampSim Multicore Out-of-Order Simulator ***

Warmup Instructions: 50000000
Simulation Instructions: 50000000
Number of CPUs: 1
LLC sets: 2048
LLC ways: 16
Off-chip DRAM Size: 4096 MB Channels: 1 Width: 64-bit Data Rate: 6400 MT/s
CPU 0 runs ../Ligra/ligra_BC.com-lj.ungraph.gcc_6.3.0_O3.drop_26750M.length_250M.champsimtrace.xz
.xz
CPU 0 Bimodal branch predictor
BTB has LRU replacement policy
ITLB has LRU replacement policy
DTLB has LRU replacement policy
STLB has LRU replacement policy
L1I has LRU replacement policy
CPU 0 L1D - Pythia Preftecher 
L1D has LRU replacement policy
--------- This is L2C prefetcher --------------
L2C has LRU replacement policy
LLC has LRU replacement policy
Heartbeat CPU 0 instructions: 10000003 cycles: 3333412 heartbeat IPC: 2.99993 cumulative IPC: 2.99993 (Simulation time: 0 hr 0 min 12 sec) 
Heartbeat CPU 0 instructions: 20000000 cycles: 6666744 heartbeat IPC: 3 cumulative IPC: 2.99997 (Simulation time: 0 hr 0 min 25 sec) 
Heartbeat CPU 0 instructions: 30000003 cycles: 9999733 heartbeat IPC: 3.00031 cumulative IPC: 3.00008 (Simulation time: 0 hr 0 min 38 sec) 
Heartbeat CPU 0 instructions: 40000003 cycles: 13331765 heartbeat IPC: 3.00117 cumulative IPC: 3.00035 (Simulation time: 0 hr 0 min 51 sec) 
Heartbeat CPU 0 instructions: 50000000 cycles: 16663994 heartbeat IPC: 3.00099 cumulative IPC: 3.00048 (Simulation time: 0 hr 1 min 4 sec) 

Warmup complete CPU 0 instructions: 50000003 cycles: 16663995 (Simulation time: 0 hr 1 min 4 sec) 

Heartbeat CPU 0 instructions: 60000000 cycles: 43242105 heartbeat IPC: 0.376249 cumulative IPC: 0.376249 (Simulation time: 0 hr 1 min 22 sec) 
Heartbeat CPU 0 instructions: 70000000 cycles: 69165348 heartbeat IPC: 0.385754 cumulative IPC: 0.380942 (Simulation time: 0 hr 1 min 41 sec) 
Heartbeat CPU 0 instructions: 80000001 cycles: 92538106 heartbeat IPC: 0.427849 cumulative IPC: 0.395392 (Simulation time: 0 hr 2 min 2 sec) 
Heartbeat CPU 0 instructions: 90000002 cycles: 116138449 heartbeat IPC: 0.423723 cumulative IPC: 0.402113 (Simulation time: 0 hr 2 min 34 sec) 
Heartbeat CPU 0 instructions: 100000003 cycles: 137212642 heartbeat IPC: 0.474514 cumulative IPC: 0.41477 (Simulation time: 0 hr 3 min 5 sec) 
Finished CPU 0 instructions: 50000000 cycles: 120548647 cumulative IPC: 0.41477 (Simulation time: 0 hr 3 min 5 sec) 

ChampSim completed all CPUs

Region of Interest Statistics

CPU 0 cumulative IPC: 0.41477 instructions: 50000000 cycles: 120548647
ITLB TOTAL     ACCESS:    7839024  HIT:    7839023  MISS:          1  HIT %:        100  MISS %: 1.27567e-05   MPKI: 2e-05
ITLB LOAD TRANSLATION ACCESS:    7839024  HIT:    7839023  MISS:          1  HIT %:        100  MISS %: 1.27567e-05   MPKI: 2e-05
ITLB PREFETCH  REQUESTED:          0  ISSUED:          0  USEFUL:          0  USELESS:          0
ITLB USEFUL LOAD PREFETCHES:          0 PREFETCH ISSUED TO LOWER LEVEL:          0  ACCURACY: -nan
ITLB TIMELY PREFETCHES:          0 LATE PREFETCHES: 0 DROPPED PREFETCHES: 0
ITLB PREFETCHES SAME FILL-ORIGIN LEVEL: 0 DIFFERENT FILL-ORIGIN LEVEL: 0
ITLB AVERAGE MISS LATENCY: 320 cycles
ITLB RQ	ACCESS:    7839044	FORWARD:          0	MERGED:         21	TO_CACHE:    7839023

DTLB TOTAL     ACCESS:    9126168  HIT:    9099144  MISS:      27024  HIT %:    99.7039  MISS %:   0.296116   MPKI: 0.54048
DTLB LOAD TRANSLATION ACCESS:    9126168  HIT:    9099144  MISS:      27024  HIT %:    99.7039  MISS %:   0.296116   MPKI: 0.54048
DTLB PREFETCH  REQUESTED:          0  ISSUED:          0  USEFUL:          0  USELESS:          0
DTLB USEFUL LOAD PREFETCHES:          0 PREFETCH ISSUED TO LOWER LEVEL:          0  ACCURACY: -nan
DTLB TIMELY PREFETCHES:          0 LATE PREFETCHES: 0 DROPPED PREFETCHES: 0
DTLB PREFETCHES SAME FILL-ORIGIN LEVEL: 0 DIFFERENT FILL-ORIGIN LEVEL: 0
DTLB AVERAGE MISS LATENCY: 157.136 cycles
DTLB RQ	ACCESS:   12884068	FORWARD:          0	MERGED:    3703317	TO_CACHE:    9180751

STLB TOTAL     ACCESS:    2431702  HIT:    2404859  MISS:      26843  HIT %:    98.8961  MISS %:    1.10388   MPKI: 0.53686
STLB LOAD TRANSLATION ACCESS:      27025  HIT:        182  MISS:      26843  HIT %:   0.673451  MISS %:    99.3265   MPKI: 0.53686
STLB TRANSLATION FROM L1D PREFETCHER ACCESS:    2404677  HIT:    2404677  MISS:          0  HIT %:        100  MISS %:          0   MPKI: 0
STLB PREFETCH  REQUESTED:          0  ISSUED:          0  USEFUL:          0  USELESS:          0
STLB USEFUL LOAD PREFETCHES:          0 PREFETCH ISSUED TO LOWER LEVEL:          0  ACCURACY: -nan
STLB TIMELY PREFETCHES:          0 LATE PREFETCHES: 0 DROPPED PREFETCHES: 0
STLB PREFETCHES SAME FILL-ORIGIN LEVEL: 0 DIFFERENT FILL-ORIGIN LEVEL: 0
STLB AVERAGE MISS LATENCY: 148.643 cycles
STLB RQ	ACCESS:    8274843	FORWARD:          0	MERGED:    5843140	TO_CACHE:    2431703

STLB Hit, L1D data hit: 0
STLB Hit, L2C data hit: 0
STLB Hit, LLC data hit: 0
STLB Hit, LLC data miss: 0
STLB STLB hints to L2: 0
L1D TOTAL     ACCESS:   14349398  HIT:   12685563  MISS:    1663835  HIT %:    88.4048  MISS %:    11.5952   MPKI: 33.2767
L1D LOAD      ACCESS:    4419025  HIT:    4001385  MISS:     417640  HIT %:     90.549  MISS %:    9.45095   MPKI: 8.3528
L1D RFO       ACCESS:    2613367  HIT:    1928195  MISS:     685172  HIT %:     73.782  MISS %:     26.218   MPKI: 13.7034
L1D PREFETCH  ACCESS:    7317006  HIT:    6755983  MISS:     561023  HIT %:    92.3326  MISS %:    7.66738   MPKI: 11.2205
AGUS PREFETCH L1 MISS: 0
L1D PREFETCH  REQUESTED:   18292499  ISSUED:   18208707  USEFUL:     452777  USELESS:     108117
L1D USEFUL LOAD PREFETCHES:     452777 PREFETCH ISSUED TO LOWER LEVEL:     689277  ACCURACY: 65.6887
L1D TIMELY PREFETCHES:     452777 LATE PREFETCHES: 128252 DROPPED PREFETCHES: 0
L1D PREFETCHES SAME FILL-ORIGIN LEVEL: 689277 DIFFERENT FILL-ORIGIN LEVEL: 0
L1D AVERAGE MISS LATENCY: 287.516 cycles
L1D RQ	ACCESS:   10366956	FORWARD:          0	MERGED:    5793474	TO_CACHE:    4573482
L1D WQ	ACCESS:    8310587	FORWARD:          0	MERGED:          1	TO_CACHE:    8310586
L1D PQ	ACCESS:    9960889	FORWARD:          0	MERGED:    1713071	TO_CACHE:    8247818

L1D UNIQUE REGIONS ACCESSED: 0
L1D REGIONS CONFLICTS: 0
L1D Cross Page Prefetch Requests: 0
L1D Same Page Prefetch Requests: 25497171
L1D ROI Sum of L1D PQ occupancy: 151538119
L1D PREFETCHES PUSHED FROM L2C: 0
L1I TOTAL     ACCESS:    7839044  HIT:    7839029  MISS:         15  HIT %:    99.9998  MISS %: 0.00019135   MPKI: 0.0003
L1I LOAD      ACCESS:    7839044  HIT:    7839029  MISS:         15  HIT %:    99.9998  MISS %: 0.00019135   MPKI: 0.0003
L1I PREFETCH  REQUESTED:          0  ISSUED:          0  USEFUL:          0  USELESS:          0
L1I USEFUL LOAD PREFETCHES:          0 PREFETCH ISSUED TO LOWER LEVEL:          0  ACCURACY: -nan
L1I TIMELY PREFETCHES:          0 LATE PREFETCHES: 0 DROPPED PREFETCHES: 0
L1I PREFETCHES SAME FILL-ORIGIN LEVEL: 0 DIFFERENT FILL-ORIGIN LEVEL: 0
L1I AVERAGE MISS LATENCY: 230 cycles
L1I RQ	ACCESS:   14256216	FORWARD:          0	MERGED:    6417172	TO_CACHE:    7839044

BTB TOTAL     ACCESS:    8792345  HIT:    8792263  MISS:         82  HIT %:    99.9991  MISS %: 0.000932629   MPKI: 0.00164
BTB BRANCH_DIRECT_JUMP	ACCESS:         44  HIT:         24  MISS:         20
BTB BRANCH_INDIRECT	ACCESS:          0  HIT:          0  MISS:          0
BTB BRANCH_CONDITIONAL	ACCESS:    8792287  HIT:    8792237  MISS:         50
BTB BRANCH_DIRECT_CALL	ACCESS:          6  HIT:          1  MISS:          5
BTB BRANCH_INDIRECT_CALL	ACCESS:          0  HIT:          0  MISS:          0
BTB BRANCH_RETURN	ACCESS:          8  HIT:          1  MISS:          7
BTB BRANCH_OTHER ACCESS:          0  HIT:          0  MISS:          0

L2C TOTAL     ACCESS:    2376138  HIT:     711554  MISS:    1664584  HIT %:    29.9458  MISS %:    70.0542   MPKI: 33.2917
L2C LOAD      ACCESS:     289403  HIT:        140  MISS:     289263  HIT %:  0.0483754  MISS %:    99.9516   MPKI: 5.78526
L2C DATA LOAD MPKI: 5.78496
L2C INSTRUCTION LOAD MPKI: 0.0003
L2C RFO       ACCESS:     685172  HIT:         12  MISS:     685160  HIT %: 0.00175139  MISS %:    99.9982   MPKI: 13.7032
L2C PREFETCH  ACCESS:     689275  HIT:       2550  MISS:     686725  HIT %:   0.369954  MISS %:      99.63   MPKI: 13.7345
AGUS PREFETCH L1 MISS: 0
L2C DATA PREFETCH MPKI: 13.7345
L2C INSTRUCTION PREFETCH MPKI: 0
L2C WRITEBACK ACCESS:     685442  HIT:     685440  MISS:          2  HIT %:    99.9997  MISS %: 0.000291783   MPKI: 4e-05
L2C LOAD TRANSLATION ACCESS:      26846  HIT:      23412  MISS:       3434  HIT %:    87.2085  MISS %:    12.7915   MPKI: 0.06868
L2C PREFETCH  REQUESTED:          0  ISSUED:          0  USEFUL:        139  USELESS:     683854
L2C USEFUL LOAD PREFETCHES:        139 PREFETCH ISSUED TO LOWER LEVEL:     686725  ACCURACY: 0.020241
L2C TIMELY PREFETCHES:        139 LATE PREFETCHES: 0 DROPPED PREFETCHES: 0
L2C PREFETCHES SAME FILL-ORIGIN LEVEL: 0 DIFFERENT FILL-ORIGIN LEVEL: 0
L2C AVERAGE MISS LATENCY: 271.983 cycles
L2C RQ	ACCESS:    1001425	FORWARD:          0	MERGED:          0	TO_CACHE:    1001425
L2C WQ	ACCESS:     685442	FORWARD:          0	MERGED:          0	TO_CACHE:     685442
L2C PQ	ACCESS:     689277	FORWARD:          0	MERGED:          0	TO_CACHE:     689277

L2C Instructions Evicting Data 15
L2C Translations Evicting Data 3431
L2C Data Evicting Data 1657697
L2C Instructions Evicting Instructions 0
L2C Translations Evicting Instructions 0
L2C Data Evicting Instructions 15
L2C Instructions Evicting Translations 0
L2C Translations Evicting Translations 3
L2C Data Evicting Translations 3421
L2C Dense regions hint from L2: 0
PSCL5 TOTAL     ACCESS:      26843  HIT:      26843  MISS:          0  HIT %:        100  MISS %:          0   MPKI: 0
PSCL5 LOAD TRANSLATION ACCESS:      26843  HIT:      26843  MISS:          0  HIT %:        100  MISS %:          0   MPKI: 0
PSCL5 PREFETCH  REQUESTED:          0  ISSUED:          0  USEFUL:          0  USELESS:          0
PSCL5 USEFUL LOAD PREFETCHES:          0 PREFETCH ISSUED TO LOWER LEVEL:          0  ACCURACY: -nan
PSCL5 TIMELY PREFETCHES:          0 LATE PREFETCHES: 0 DROPPED PREFETCHES: 0
PSCL5 PREFETCHES SAME FILL-ORIGIN LEVEL: 0 DIFFERENT FILL-ORIGIN LEVEL: 0

PSCL4 TOTAL     ACCESS:      26843  HIT:      26843  MISS:          0  HIT %:        100  MISS %:          0   MPKI: 0
PSCL4 LOAD TRANSLATION ACCESS:      26843  HIT:      26843  MISS:          0  HIT %:        100  MISS %:          0   MPKI: 0
PSCL4 PREFETCH  REQUESTED:          0  ISSUED:          0  USEFUL:          0  USELESS:          0
PSCL4 USEFUL LOAD PREFETCHES:          0 PREFETCH ISSUED TO LOWER LEVEL:          0  ACCURACY: -nan
PSCL4 TIMELY PREFETCHES:          0 LATE PREFETCHES: 0 DROPPED PREFETCHES: 0
PSCL4 PREFETCHES SAME FILL-ORIGIN LEVEL: 0 DIFFERENT FILL-ORIGIN LEVEL: 0

PSCL3 TOTAL     ACCESS:      26843  HIT:      26843  MISS:          0  HIT %:        100  MISS %:          0   MPKI: 0
PSCL3 LOAD TRANSLATION ACCESS:      26843  HIT:      26843  MISS:          0  HIT %:        100  MISS %:          0   MPKI: 0
PSCL3 PREFETCH  REQUESTED:          0  ISSUED:          0  USEFUL:          0  USELESS:          0
PSCL3 USEFUL LOAD PREFETCHES:          0 PREFETCH ISSUED TO LOWER LEVEL:          0  ACCURACY: -nan
PSCL3 TIMELY PREFETCHES:          0 LATE PREFETCHES: 0 DROPPED PREFETCHES: 0
PSCL3 PREFETCHES SAME FILL-ORIGIN LEVEL: 0 DIFFERENT FILL-ORIGIN LEVEL: 0

PSCL2 TOTAL     ACCESS:      26843  HIT:      26790  MISS:         53  HIT %:    99.8026  MISS %:   0.197444   MPKI: 0.00106
PSCL2 LOAD TRANSLATION ACCESS:      26843  HIT:      26790  MISS:         53  HIT %:    99.8026  MISS %:   0.197444   MPKI: 0.00106
PSCL2 PREFETCH  REQUESTED:          0  ISSUED:          0  USEFUL:          0  USELESS:          0
PSCL2 USEFUL LOAD PREFETCHES:          0 PREFETCH ISSUED TO LOWER LEVEL:          0  ACCURACY: -nan
PSCL2 TIMELY PREFETCHES:          0 LATE PREFETCHES: 0 DROPPED PREFETCHES: 0
PSCL2 PREFETCHES SAME FILL-ORIGIN LEVEL: 0 DIFFERENT FILL-ORIGIN LEVEL: 0

LLC TOTAL     ACCESS:    2353021  HIT:     688531  MISS:    1664490  HIT %:    29.2616  MISS %:    70.7384   MPKI: 33.2898
LLC LOAD      ACCESS:     289263  HIT:          6  MISS:     289257  HIT %: 0.00207424  MISS %:    99.9979   MPKI: 5.78514
LLC RFO       ACCESS:     685160  HIT:          0  MISS:     685160  HIT %:          0  MISS %:        100   MPKI: 13.7032
LLC PREFETCH  ACCESS:     686725  HIT:         93  MISS:     686632  HIT %:  0.0135425  MISS %:    99.9865   MPKI: 13.7326
AGUS PREFETCH L1 MISS: 0
LLC WRITEBACK ACCESS:     688439  HIT:     688432  MISS:          7  HIT %:     99.999  MISS %: 0.00101679   MPKI: 0.00014
LLC LOAD TRANSLATION ACCESS:       3434  HIT:          0  MISS:       3434  HIT %:          0  MISS %:        100   MPKI: 0.06868
LLC PREFETCH  REQUESTED:          0  ISSUED:          0  USEFUL:          5  USELESS:     688521
LLC USEFUL LOAD PREFETCHES:          5 PREFETCH ISSUED TO LOWER LEVEL:     686632  ACCURACY: 0.000728192
LLC TIMELY PREFETCHES:          5 LATE PREFETCHES: 0 DROPPED PREFETCHES: 0
LLC PREFETCHES SAME FILL-ORIGIN LEVEL: 0 DIFFERENT FILL-ORIGIN LEVEL: 0
LLC AVERAGE MISS LATENCY: 240.565 cycles
LLC RQ	ACCESS:     977859	FORWARD:          0	MERGED:          0	TO_CACHE:     977859
LLC WQ	ACCESS:     688441	FORWARD:          0	MERGED:          0	TO_CACHE:     688441
LLC PQ	ACCESS:     686725	FORWARD:          0	MERGED:          0	TO_CACHE:     686725

LLC Dense regions hint to LLC: 0

RAW hits: 20
Loads Generated: 10366976
Loads sent to L1D: 10366956
Stores Generated: 8310597
Stores sent to L1D: 8310587
Major fault: 0 Minor fault: 27049
Allocated PAGES: 27049
CPU 0 L1D nextline prefetcher final stats
 Action = 30 : 521051
 Action = 23 : 361241
 Action = 16 : 421221
 Action = 11 : 455779
 Action = 10 : 399465
 Action = 22 : 413417
 Action = 5 : 384927
 Action = 4 : 428750
 Action = 32 : 977197
 Action = -3 : 410480
 Action = 12 : 378312
 Action = -6 : 411590
 Action = 3 : 422727
 Action = 1 : 1535730
 Action = -1 : 501771
 Action = 0 : 4203882
---------------Prefetch degree counts-----------------------
 prefetch degree = 5 : 2495
 number of times low bandwidth is  10099209
number of times high bandwidth is 1509318

DRAM Statistics
 CHANNEL 0
 RQ ROW_BUFFER_HIT:     797235  ROW_BUFFER_MISS:     867248
 DBUS_CONGESTED:        323
 WQ ROW_BUFFER_HIT:     164556  ROW_BUFFER_MISS:     519835  FULL:          0

 AVG_CONGESTED_CYCLE: 6
 All warmup complete: 2
Channel 0 Bank busy for read cycles: 0
Channel 0 Bank busy for write cycles: 0
Channel 0
Rank 0
0banks busy for read cycles: 44989574
0banks busy for write cycles: 56848
1banks busy for read cycles: 17449164
1banks busy for write cycles: 8237254
2banks busy for read cycles: 5724792
2banks busy for write cycles: 1201307
3banks busy for read cycles: 5334850
3banks busy for write cycles: 510426
4banks busy for read cycles: 5247501
4banks busy for write cycles: 332202
5banks busy for read cycles: 5029685
5banks busy for write cycles: 250175
6banks busy for read cycles: 4486673
6banks busy for write cycles: 208452
7banks busy for read cycles: 3790685
7banks busy for write cycles: 818427
8banks busy for read cycles: 3981035
8banks busy for write cycles: 12899598

CPU 0 Branch Prediction Accuracy: 87.8141% MPKI: 21.4311 Average ROB Occupancy at Mispredict: 3.37261
Branch types
NOT_BRANCH: 41206826 82.4137%
BRANCH_DIRECT_JUMP: 44 8.8e-05%
BRANCH_INDIRECT: 0 0%
BRANCH_CONDITIONAL: 8793340 17.5867%
BRANCH_DIRECT_CALL: 6 1.2e-05%
BRANCH_INDIRECT_CALL: 0 0%
BRANCH_RETURN: 8 1.6e-05%
BRANCH_OTHER: 0 0%

DRAM PAGES: 1048576
Allocated PAGES: 27049
