
*** ChampSim Multicore Out-of-Order Simulator ***

Warmup Instructions: 50000000
Simulation Instructions: 50000000
Number of CPUs: 1
LLC sets: 2048
LLC ways: 16
Off-chip DRAM Size: 4096 MB Channels: 1 Width: 64-bit Data Rate: 6400 MT/s
CPU 0 runs ../Ligra/ligra_BC.com-lj.ungraph.gcc_6.3.0_O3.drop_15500M.length_250M.champsimtrace.xz
.xz
CPU 0 Bimodal branch predictor
BTB has LRU replacement policy
ITLB has LRU replacement policy
DTLB has LRU replacement policy
STLB has LRU replacement policy
L1I has LRU replacement policy
CPU 0 L1D - Pythia Preftecher 
L1D has LRU replacement policy
--------- This is L2C prefetcher --------------
L2C has LRU replacement policy
LLC has LRU replacement policy
Heartbeat CPU 0 instructions: 10000003 cycles: 2666966 heartbeat IPC: 3.74958 cumulative IPC: 3.74958 (Simulation time: 0 hr 0 min 13 sec) 
Heartbeat CPU 0 instructions: 20000001 cycles: 5333629 heartbeat IPC: 3.75 cumulative IPC: 3.74979 (Simulation time: 0 hr 0 min 25 sec) 
Heartbeat CPU 0 instructions: 30000003 cycles: 8000296 heartbeat IPC: 3.75 cumulative IPC: 3.74986 (Simulation time: 0 hr 0 min 37 sec) 
Heartbeat CPU 0 instructions: 40000000 cycles: 10666962 heartbeat IPC: 3.75 cumulative IPC: 3.7499 (Simulation time: 0 hr 0 min 50 sec) 
Heartbeat CPU 0 instructions: 50000001 cycles: 13333628 heartbeat IPC: 3.75 cumulative IPC: 3.74992 (Simulation time: 0 hr 1 min 4 sec) 

Warmup complete CPU 0 instructions: 50000001 cycles: 13333628 (Simulation time: 0 hr 1 min 4 sec) 

Heartbeat CPU 0 instructions: 60000003 cycles: 26311462 heartbeat IPC: 0.770545 cumulative IPC: 0.770545 (Simulation time: 0 hr 1 min 22 sec) 
Heartbeat CPU 0 instructions: 70000000 cycles: 40975646 heartbeat IPC: 0.681933 cumulative IPC: 0.723536 (Simulation time: 0 hr 1 min 39 sec) 
Heartbeat CPU 0 instructions: 80000001 cycles: 55275036 heartbeat IPC: 0.699331 cumulative IPC: 0.715284 (Simulation time: 0 hr 1 min 58 sec) 
Heartbeat CPU 0 instructions: 90000001 cycles: 68638076 heartbeat IPC: 0.748333 cumulative IPC: 0.723269 (Simulation time: 0 hr 2 min 15 sec) 
Heartbeat CPU 0 instructions: 100000000 cycles: 82095013 heartbeat IPC: 0.743111 cumulative IPC: 0.727152 (Simulation time: 0 hr 2 min 33 sec) 
Finished CPU 0 instructions: 50000003 cycles: 68761389 cumulative IPC: 0.727152 (Simulation time: 0 hr 2 min 33 sec) 

ChampSim completed all CPUs

Region of Interest Statistics

CPU 0 cumulative IPC: 0.727152 instructions: 50000003 cycles: 68761389
ITLB TOTAL     ACCESS:    6972457  HIT:    6972457  MISS:          0  HIT %:        100  MISS %:          0   MPKI: 0
ITLB LOAD TRANSLATION ACCESS:    6972457  HIT:    6972457  MISS:          0  HIT %:        100  MISS %:          0   MPKI: 0
ITLB PREFETCH  REQUESTED:          0  ISSUED:          0  USEFUL:          0  USELESS:          0
ITLB USEFUL LOAD PREFETCHES:          0 PREFETCH ISSUED TO LOWER LEVEL:          0  ACCURACY: -nan
ITLB TIMELY PREFETCHES:          0 LATE PREFETCHES: 0 DROPPED PREFETCHES: 0
ITLB PREFETCHES SAME FILL-ORIGIN LEVEL: 0 DIFFERENT FILL-ORIGIN LEVEL: 0
ITLB AVERAGE MISS LATENCY: -nan cycles
ITLB RQ	ACCESS:   10626824	FORWARD:          0	MERGED:    3654368	TO_CACHE:    6972456

DTLB TOTAL     ACCESS:    7520630  HIT:    7500497  MISS:      20133  HIT %:    99.7323  MISS %:   0.267704   MPKI: 0.40266
DTLB LOAD TRANSLATION ACCESS:    7520630  HIT:    7500497  MISS:      20133  HIT %:    99.7323  MISS %:   0.267704   MPKI: 0.40266
DTLB PREFETCH  REQUESTED:          0  ISSUED:          0  USEFUL:          0  USELESS:          0
DTLB USEFUL LOAD PREFETCHES:          0 PREFETCH ISSUED TO LOWER LEVEL:          0  ACCURACY: -nan
DTLB TIMELY PREFETCHES:          0 LATE PREFETCHES: 0 DROPPED PREFETCHES: 0
DTLB PREFETCHES SAME FILL-ORIGIN LEVEL: 0 DIFFERENT FILL-ORIGIN LEVEL: 0
DTLB AVERAGE MISS LATENCY: 159.013 cycles
DTLB RQ	ACCESS:   12086490	FORWARD:          0	MERGED:    4467766	TO_CACHE:    7618724

STLB TOTAL     ACCESS:     437868  HIT:     417735  MISS:      20133  HIT %:     95.402  MISS %:    4.59796   MPKI: 0.40266
STLB LOAD TRANSLATION ACCESS:      20133  HIT:          0  MISS:      20133  HIT %:          0  MISS %:        100   MPKI: 0.40266
STLB TRANSLATION FROM L1D PREFETCHER ACCESS:     417735  HIT:     417735  MISS:          0  HIT %:        100  MISS %:          0   MPKI: 0
STLB PREFETCH  REQUESTED:          0  ISSUED:          0  USEFUL:          0  USELESS:          0
STLB USEFUL LOAD PREFETCHES:          0 PREFETCH ISSUED TO LOWER LEVEL:          0  ACCURACY: -nan
STLB TIMELY PREFETCHES:          0 LATE PREFETCHES: 0 DROPPED PREFETCHES: 0
STLB PREFETCHES SAME FILL-ORIGIN LEVEL: 0 DIFFERENT FILL-ORIGIN LEVEL: 0
STLB AVERAGE MISS LATENCY: 150.004 cycles
STLB RQ	ACCESS:    1581574	FORWARD:          0	MERGED:    1143705	TO_CACHE:     437869

STLB Hit, L1D data hit: 0
STLB Hit, L2C data hit: 0
STLB Hit, LLC data hit: 0
STLB Hit, LLC data miss: 0
STLB STLB hints to L2: 0
L1D TOTAL     ACCESS:    4637663  HIT:    3331731  MISS:    1305932  HIT %:    71.8407  MISS %:    28.1593   MPKI: 26.1186
L1D LOAD      ACCESS:    1845440  HIT:    1728902  MISS:     116538  HIT %:    93.6851  MISS %:    6.31492   MPKI: 2.33076
L1D RFO       ACCESS:    1377206  HIT:     391949  MISS:     985257  HIT %:    28.4597  MISS %:    71.5403   MPKI: 19.7051
L1D PREFETCH  ACCESS:    1415017  HIT:    1210880  MISS:     204137  HIT %:    85.5735  MISS %:    14.4265   MPKI: 4.08274
AGUS PREFETCH L1 MISS: 0
L1D PREFETCH  REQUESTED:    3200289  ISSUED:    3188790  USEFUL:     185270  USELESS:      18861
L1D USEFUL LOAD PREFETCHES:     185270 PREFETCH ISSUED TO LOWER LEVEL:     207065  ACCURACY: 89.4743
L1D TIMELY PREFETCHES:     185270 LATE PREFETCHES: 2924 DROPPED PREFETCHES: 0
L1D PREFETCHES SAME FILL-ORIGIN LEVEL: 207065 DIFFERENT FILL-ORIGIN LEVEL: 0
L1D AVERAGE MISS LATENCY: 262.351 cycles
L1D RQ	ACCESS:    5316900	FORWARD:          0	MERGED:    3151057	TO_CACHE:    2165843
L1D WQ	ACCESS:    9920647	FORWARD:          0	MERGED:          0	TO_CACHE:    9920647
L1D PQ	ACCESS:    1627349	FORWARD:          0	MERGED:      65908	TO_CACHE:    1561441

L1D UNIQUE REGIONS ACCESSED: 0
L1D REGIONS CONFLICTS: 0
L1D Cross Page Prefetch Requests: 0
L1D Same Page Prefetch Requests: 21901546
L1D ROI Sum of L1D PQ occupancy: 24564053
L1D PREFETCHES PUSHED FROM L2C: 0
L1I TOTAL     ACCESS:   10626825  HIT:   10626816  MISS:          9  HIT %:    99.9999  MISS %: 8.46913e-05   MPKI: 0.00018
L1I LOAD      ACCESS:   10626825  HIT:   10626816  MISS:          9  HIT %:    99.9999  MISS %: 8.46913e-05   MPKI: 0.00018
L1I PREFETCH  REQUESTED:          0  ISSUED:          0  USEFUL:          0  USELESS:          0
L1I USEFUL LOAD PREFETCHES:          0 PREFETCH ISSUED TO LOWER LEVEL:          0  ACCURACY: -nan
L1I TIMELY PREFETCHES:          0 LATE PREFETCHES: 0 DROPPED PREFETCHES: 0
L1I PREFETCHES SAME FILL-ORIGIN LEVEL: 0 DIFFERENT FILL-ORIGIN LEVEL: 0
L1I AVERAGE MISS LATENCY: 273 cycles
L1I RQ	ACCESS:   15131296	FORWARD:          0	MERGED:    4504472	TO_CACHE:   10626824

BTB TOTAL     ACCESS:    5571283  HIT:    5571235  MISS:         48  HIT %:    99.9991  MISS %: 0.000861561   MPKI: 0.00096
BTB BRANCH_DIRECT_JUMP	ACCESS:         20  HIT:          9  MISS:         11
BTB BRANCH_INDIRECT	ACCESS:          0  HIT:          0  MISS:          0
BTB BRANCH_CONDITIONAL	ACCESS:    5571255  HIT:    5571224  MISS:         31
BTB BRANCH_DIRECT_CALL	ACCESS:          4  HIT:          1  MISS:          3
BTB BRANCH_INDIRECT_CALL	ACCESS:          0  HIT:          0  MISS:          0
BTB BRANCH_RETURN	ACCESS:          4  HIT:          1  MISS:          3
BTB BRANCH_OTHER ACCESS:          0  HIT:          0  MISS:          0

L2C TOTAL     ACCESS:    2311508  HIT:    1021437  MISS:    1290071  HIT %:    44.1892  MISS %:    55.8108   MPKI: 25.8014
L2C LOAD      ACCESS:     113623  HIT:        876  MISS:     112747  HIT %:   0.770971  MISS %:     99.229   MPKI: 2.25494
L2C DATA LOAD MPKI: 2.25476
L2C INSTRUCTION LOAD MPKI: 0.00018
L2C RFO       ACCESS:     985257  HIT:          0  MISS:     985257  HIT %:          0  MISS %:        100   MPKI: 19.7051
L2C PREFETCH  ACCESS:     207061  HIT:      17617  MISS:     189444  HIT %:    8.50812  MISS %:    91.4919   MPKI: 3.78888
AGUS PREFETCH L1 MISS: 0
L2C DATA PREFETCH MPKI: 3.78888
L2C INSTRUCTION PREFETCH MPKI: 0
L2C WRITEBACK ACCESS:     985425  HIT:     985425  MISS:          0  HIT %:        100  MISS %:          0   MPKI: 0
L2C LOAD TRANSLATION ACCESS:      20142  HIT:      17519  MISS:       2623  HIT %:    86.9775  MISS %:    13.0225   MPKI: 0.05246
L2C PREFETCH  REQUESTED:          0  ISSUED:          0  USEFUL:        867  USELESS:     187009
L2C USEFUL LOAD PREFETCHES:        867 PREFETCH ISSUED TO LOWER LEVEL:     189447  ACCURACY: 0.457648
L2C TIMELY PREFETCHES:        867 LATE PREFETCHES: 0 DROPPED PREFETCHES: 0
L2C PREFETCHES SAME FILL-ORIGIN LEVEL: 0 DIFFERENT FILL-ORIGIN LEVEL: 0
L2C AVERAGE MISS LATENCY: 250.613 cycles
L2C RQ	ACCESS:    1119023	FORWARD:          0	MERGED:          0	TO_CACHE:    1119023
L2C WQ	ACCESS:     985425	FORWARD:          0	MERGED:          0	TO_CACHE:     985425
L2C PQ	ACCESS:     207065	FORWARD:          0	MERGED:          0	TO_CACHE:     207065

L2C Instructions Evicting Data 9
L2C Translations Evicting Data 2623
L2C Data Evicting Data 1284807
L2C Instructions Evicting Instructions 0
L2C Translations Evicting Instructions 0
L2C Data Evicting Instructions 9
L2C Instructions Evicting Translations 0
L2C Translations Evicting Translations 0
L2C Data Evicting Translations 2623
L2C Dense regions hint from L2: 0
PSCL5 TOTAL     ACCESS:      20133  HIT:      20133  MISS:          0  HIT %:        100  MISS %:          0   MPKI: 0
PSCL5 LOAD TRANSLATION ACCESS:      20133  HIT:      20133  MISS:          0  HIT %:        100  MISS %:          0   MPKI: 0
PSCL5 PREFETCH  REQUESTED:          0  ISSUED:          0  USEFUL:          0  USELESS:          0
PSCL5 USEFUL LOAD PREFETCHES:          0 PREFETCH ISSUED TO LOWER LEVEL:          0  ACCURACY: -nan
PSCL5 TIMELY PREFETCHES:          0 LATE PREFETCHES: 0 DROPPED PREFETCHES: 0
PSCL5 PREFETCHES SAME FILL-ORIGIN LEVEL: 0 DIFFERENT FILL-ORIGIN LEVEL: 0

PSCL4 TOTAL     ACCESS:      20133  HIT:      20133  MISS:          0  HIT %:        100  MISS %:          0   MPKI: 0
PSCL4 LOAD TRANSLATION ACCESS:      20133  HIT:      20133  MISS:          0  HIT %:        100  MISS %:          0   MPKI: 0
PSCL4 PREFETCH  REQUESTED:          0  ISSUED:          0  USEFUL:          0  USELESS:          0
PSCL4 USEFUL LOAD PREFETCHES:          0 PREFETCH ISSUED TO LOWER LEVEL:          0  ACCURACY: -nan
PSCL4 TIMELY PREFETCHES:          0 LATE PREFETCHES: 0 DROPPED PREFETCHES: 0
PSCL4 PREFETCHES SAME FILL-ORIGIN LEVEL: 0 DIFFERENT FILL-ORIGIN LEVEL: 0

PSCL3 TOTAL     ACCESS:      20133  HIT:      20133  MISS:          0  HIT %:        100  MISS %:          0   MPKI: 0
PSCL3 LOAD TRANSLATION ACCESS:      20133  HIT:      20133  MISS:          0  HIT %:        100  MISS %:          0   MPKI: 0
PSCL3 PREFETCH  REQUESTED:          0  ISSUED:          0  USEFUL:          0  USELESS:          0
PSCL3 USEFUL LOAD PREFETCHES:          0 PREFETCH ISSUED TO LOWER LEVEL:          0  ACCURACY: -nan
PSCL3 TIMELY PREFETCHES:          0 LATE PREFETCHES: 0 DROPPED PREFETCHES: 0
PSCL3 PREFETCHES SAME FILL-ORIGIN LEVEL: 0 DIFFERENT FILL-ORIGIN LEVEL: 0

PSCL2 TOTAL     ACCESS:      20133  HIT:      20085  MISS:         48  HIT %:    99.7616  MISS %:   0.238415   MPKI: 0.00096
PSCL2 LOAD TRANSLATION ACCESS:      20133  HIT:      20085  MISS:         48  HIT %:    99.7616  MISS %:   0.238415   MPKI: 0.00096
PSCL2 PREFETCH  REQUESTED:          0  ISSUED:          0  USEFUL:          0  USELESS:          0
PSCL2 USEFUL LOAD PREFETCHES:          0 PREFETCH ISSUED TO LOWER LEVEL:          0  ACCURACY: -nan
PSCL2 TIMELY PREFETCHES:          0 LATE PREFETCHES: 0 DROPPED PREFETCHES: 0
PSCL2 PREFETCHES SAME FILL-ORIGIN LEVEL: 0 DIFFERENT FILL-ORIGIN LEVEL: 0

LLC TOTAL     ACCESS:    2276935  HIT:     987114  MISS:    1289821  HIT %:    43.3528  MISS %:    56.6472   MPKI: 25.7964
LLC LOAD      ACCESS:     112747  HIT:          2  MISS:     112745  HIT %: 0.00177388  MISS %:    99.9982   MPKI: 2.2549
LLC RFO       ACCESS:     985257  HIT:          0  MISS:     985257  HIT %:          0  MISS %:        100   MPKI: 19.7051
LLC PREFETCH  ACCESS:     189447  HIT:        200  MISS:     189247  HIT %:    0.10557  MISS %:    99.8944   MPKI: 3.78494
AGUS PREFETCH L1 MISS: 0
LLC WRITEBACK ACCESS:     986861  HIT:     986861  MISS:          0  HIT %:        100  MISS %:          0   MPKI: 0
LLC LOAD TRANSLATION ACCESS:       2623  HIT:         51  MISS:       2572  HIT %:    1.94434  MISS %:    98.0557   MPKI: 0.05144
LLC PREFETCH  REQUESTED:          0  ISSUED:          0  USEFUL:          2  USELESS:     183775
LLC USEFUL LOAD PREFETCHES:          2 PREFETCH ISSUED TO LOWER LEVEL:     189247  ACCURACY: 0.00105682
LLC TIMELY PREFETCHES:          2 LATE PREFETCHES: 0 DROPPED PREFETCHES: 0
LLC PREFETCHES SAME FILL-ORIGIN LEVEL: 0 DIFFERENT FILL-ORIGIN LEVEL: 0
LLC AVERAGE MISS LATENCY: 219.445 cycles
LLC RQ	ACCESS:    1100628	FORWARD:          0	MERGED:          0	TO_CACHE:    1100628
LLC WQ	ACCESS:     986861	FORWARD:          0	MERGED:          0	TO_CACHE:     986861
LLC PQ	ACCESS:     189447	FORWARD:          0	MERGED:          0	TO_CACHE:     189447

LLC Dense regions hint to LLC: 0

RAW hits: 4
Loads Generated: 5316904
Loads sent to L1D: 5316900
Stores Generated: 9920651
Stores sent to L1D: 9920647
Major fault: 0 Minor fault: 42653
Allocated PAGES: 42653
CPU 0 L1D nextline prefetcher final stats
 Action = 30 : 179772
 Action = 23 : 99661
 Action = 16 : 227343
 Action = 11 : 225866
 Action = 10 : 229383
 Action = 22 : 117537
 Action = 5 : 207747
 Action = 32 : 675803
 Action = -3 : 222505
 Action = 12 : 268054
 Action = -6 : 188333
 Action = 3 : 349776
 Action = 0 : 2413456
 Action = -1 : 193207
 Action = 1 : 2661864
 Action = 4 : 321165
---------------Prefetch degree counts-----------------------
 prefetch degree = 5 : 1751
 number of times low bandwidth is  5923673
number of times high bandwidth is 2082117

DRAM Statistics
 CHANNEL 0
 RQ ROW_BUFFER_HIT:     358511  ROW_BUFFER_MISS:     931309
 DBUS_CONGESTED:       1079
 WQ ROW_BUFFER_HIT:     423280  ROW_BUFFER_MISS:     568391  FULL:          0

 AVG_CONGESTED_CYCLE: 5
 All warmup complete: 2
Channel 0 Bank busy for read cycles: 0
Channel 0 Bank busy for write cycles: 0
Channel 0
Rank 0
0banks busy for read cycles: 138028
0banks busy for write cycles: 7
1banks busy for read cycles: 7396774
1banks busy for write cycles: 170842
2banks busy for read cycles: 10900176
2banks busy for write cycles: 170035
3banks busy for read cycles: 10218204
3banks busy for write cycles: 169570
4banks busy for read cycles: 4187987
4banks busy for write cycles: 169190
5banks busy for read cycles: 3277798
5banks busy for write cycles: 172563
6banks busy for read cycles: 3092406
6banks busy for write cycles: 193643
7banks busy for read cycles: 2454509
7banks busy for write cycles: 1392091
8banks busy for read cycles: 4087056
8banks busy for write cycles: 20570511

CPU 0 Branch Prediction Accuracy: 99.1289% MPKI: 1.09324 Average ROB Occupancy at Mispredict: 85.9799
Branch types
NOT_BRANCH: 43724674 87.4493%
BRANCH_DIRECT_JUMP: 20 4e-05%
BRANCH_INDIRECT: 0 0%
BRANCH_CONDITIONAL: 6275318 12.5506%
BRANCH_DIRECT_CALL: 4 8e-06%
BRANCH_INDIRECT_CALL: 0 0%
BRANCH_RETURN: 4 8e-06%
BRANCH_OTHER: 0 0%

DRAM PAGES: 1048576
Allocated PAGES: 42653
