
*** ChampSim Multicore Out-of-Order Simulator ***

Warmup Instructions: 50000000
Simulation Instructions: 50000000
Number of CPUs: 1
LLC sets: 2048
LLC ways: 16
Off-chip DRAM Size: 4096 MB Channels: 1 Width: 64-bit Data Rate: 6400 MT/s
CPU 0 runs ../Ligra/ligra_BC.com-lj.ungraph.gcc_6.3.0_O3.drop_15500M.length_250M.champsimtrace.xz
.xz
CPU 0 Bimodal branch predictor
BTB has LRU replacement policy
ITLB has LRU replacement policy
DTLB has LRU replacement policy
STLB has LRU replacement policy
L1I has LRU replacement policy
CPU 0 L1D - Pythia Preftecher 
L1D has LRU replacement policy
--------- This is L2C prefetcher --------------
L2C has LRU replacement policy
LLC has LRU replacement policy
Heartbeat CPU 0 instructions: 10000003 cycles: 2666966 heartbeat IPC: 3.74958 cumulative IPC: 3.74958 (Simulation time: 0 hr 0 min 13 sec) 
Heartbeat CPU 0 instructions: 20000001 cycles: 5333629 heartbeat IPC: 3.75 cumulative IPC: 3.74979 (Simulation time: 0 hr 0 min 26 sec) 
Heartbeat CPU 0 instructions: 30000003 cycles: 8000296 heartbeat IPC: 3.75 cumulative IPC: 3.74986 (Simulation time: 0 hr 0 min 40 sec) 
Heartbeat CPU 0 instructions: 40000003 cycles: 10666962 heartbeat IPC: 3.75 cumulative IPC: 3.7499 (Simulation time: 0 hr 0 min 56 sec) 
Heartbeat CPU 0 instructions: 50000001 cycles: 13333628 heartbeat IPC: 3.75 cumulative IPC: 3.74992 (Simulation time: 0 hr 1 min 12 sec) 

Warmup complete CPU 0 instructions: 50000001 cycles: 13333628 (Simulation time: 0 hr 1 min 12 sec) 

Heartbeat CPU 0 instructions: 60000002 cycles: 25793739 heartbeat IPC: 0.802561 cumulative IPC: 0.802561 (Simulation time: 0 hr 1 min 34 sec) 
Heartbeat CPU 0 instructions: 70000000 cycles: 39166068 heartbeat IPC: 0.747813 cumulative IPC: 0.77422 (Simulation time: 0 hr 1 min 50 sec) 
Heartbeat CPU 0 instructions: 80000000 cycles: 49920778 heartbeat IPC: 0.929825 cumulative IPC: 0.81996 (Simulation time: 0 hr 2 min 9 sec) 
Heartbeat CPU 0 instructions: 90000000 cycles: 60785094 heartbeat IPC: 0.920444 cumulative IPC: 0.842967 (Simulation time: 0 hr 2 min 26 sec) 
Heartbeat CPU 0 instructions: 100000000 cycles: 71571610 heartbeat IPC: 0.927083 cumulative IPC: 0.858546 (Simulation time: 0 hr 2 min 43 sec) 
Finished CPU 0 instructions: 50000003 cycles: 58237986 cumulative IPC: 0.858546 (Simulation time: 0 hr 2 min 43 sec) 

ChampSim completed all CPUs

Region of Interest Statistics

CPU 0 cumulative IPC: 0.858546 instructions: 50000003 cycles: 58237986
ITLB TOTAL     ACCESS:    6863726  HIT:    6863726  MISS:          0  HIT %:        100  MISS %:          0   MPKI: 0
ITLB LOAD TRANSLATION ACCESS:    6863726  HIT:    6863726  MISS:          0  HIT %:        100  MISS %:          0   MPKI: 0
ITLB PREFETCH  REQUESTED:          0  ISSUED:          0  USEFUL:          0  USELESS:          0
ITLB USEFUL LOAD PREFETCHES:          0 PREFETCH ISSUED TO LOWER LEVEL:          0  ACCURACY: -nan
ITLB TIMELY PREFETCHES:          0 LATE PREFETCHES: 0 DROPPED PREFETCHES: 0
ITLB PREFETCHES SAME FILL-ORIGIN LEVEL: 0 DIFFERENT FILL-ORIGIN LEVEL: 0
ITLB AVERAGE MISS LATENCY: -nan cycles
ITLB RQ	ACCESS:   10561969	FORWARD:          0	MERGED:    3698244	TO_CACHE:    6863725

DTLB TOTAL     ACCESS:    8108958  HIT:    8088825  MISS:      20133  HIT %:    99.7517  MISS %:   0.248281   MPKI: 0.40266
DTLB LOAD TRANSLATION ACCESS:    8108958  HIT:    8088825  MISS:      20133  HIT %:    99.7517  MISS %:   0.248281   MPKI: 0.40266
DTLB PREFETCH  REQUESTED:          0  ISSUED:          0  USEFUL:          0  USELESS:          0
DTLB USEFUL LOAD PREFETCHES:          0 PREFETCH ISSUED TO LOWER LEVEL:          0  ACCURACY: -nan
DTLB TIMELY PREFETCHES:          0 LATE PREFETCHES: 0 DROPPED PREFETCHES: 0
DTLB PREFETCHES SAME FILL-ORIGIN LEVEL: 0 DIFFERENT FILL-ORIGIN LEVEL: 0
DTLB AVERAGE MISS LATENCY: 160.567 cycles
DTLB RQ	ACCESS:   12662305	FORWARD:          0	MERGED:    4461864	TO_CACHE:    8200441

STLB TOTAL     ACCESS:    2416446  HIT:    2396313  MISS:      20133  HIT %:    99.1668  MISS %:   0.833166   MPKI: 0.40266
STLB LOAD TRANSLATION ACCESS:      20133  HIT:          0  MISS:      20133  HIT %:          0  MISS %:        100   MPKI: 0.40266
STLB TRANSLATION FROM L1D PREFETCHER ACCESS:    2396313  HIT:    2396313  MISS:          0  HIT %:        100  MISS %:          0   MPKI: 0
STLB PREFETCH  REQUESTED:          0  ISSUED:          0  USEFUL:          0  USELESS:          0
STLB USEFUL LOAD PREFETCHES:          0 PREFETCH ISSUED TO LOWER LEVEL:          0  ACCURACY: -nan
STLB TIMELY PREFETCHES:          0 LATE PREFETCHES: 0 DROPPED PREFETCHES: 0
STLB PREFETCHES SAME FILL-ORIGIN LEVEL: 0 DIFFERENT FILL-ORIGIN LEVEL: 0
STLB AVERAGE MISS LATENCY: 151.557 cycles
STLB RQ	ACCESS:   11240463	FORWARD:          0	MERGED:    8824016	TO_CACHE:    2416447

STLB Hit, L1D data hit: 0
STLB Hit, L2C data hit: 0
STLB Hit, LLC data hit: 0
STLB Hit, LLC data miss: 0
STLB STLB hints to L2: 0
L1D TOTAL     ACCESS:   13330463  HIT:   12023701  MISS:    1306762  HIT %:    90.1972  MISS %:    9.80283   MPKI: 26.1352
L1D LOAD      ACCESS:    2718261  HIT:    2709614  MISS:       8647  HIT %:    99.6819  MISS %:   0.318108   MPKI: 0.17294
L1D RFO       ACCESS:    1017220  HIT:      31982  MISS:     985238  HIT %:    3.14406  MISS %:    96.8559   MPKI: 19.7048
L1D PREFETCH  ACCESS:    9594982  HIT:    9282105  MISS:     312877  HIT %:    96.7392  MISS %:    3.26084   MPKI: 6.25754
AGUS PREFETCH L1 MISS: 0
L1D PREFETCH  REQUESTED:   23488647  ISSUED:   23465154  USEFUL:     293160  USELESS:      19655
L1D USEFUL LOAD PREFETCHES:     293160 PREFETCH ISSUED TO LOWER LEVEL:     314502  ACCURACY: 93.214
L1D TIMELY PREFETCHES:     293160 LATE PREFETCHES: 1625 DROPPED PREFETCHES: 0
L1D PREFETCHES SAME FILL-ORIGIN LEVEL: 314502 DIFFERENT FILL-ORIGIN LEVEL: 0
L1D AVERAGE MISS LATENCY: 283.245 cycles
L1D RQ	ACCESS:    5316900	FORWARD:          0	MERGED:    2575242	TO_CACHE:    2741658
L1D WQ	ACCESS:    9920647	FORWARD:          0	MERGED:          0	TO_CACHE:    9920647
L1D PQ	ACCESS:   12244824	FORWARD:          0	MERGED:    1024494	TO_CACHE:   11220330

L1D UNIQUE REGIONS ACCESSED: 0
L1D REGIONS CONFLICTS: 0
L1D Cross Page Prefetch Requests: 0
L1D Same Page Prefetch Requests: 36236384
L1D ROI Sum of L1D PQ occupancy: 160720786
L1D PREFETCHES PUSHED FROM L2C: 0
L1I TOTAL     ACCESS:   10561970  HIT:   10561961  MISS:          9  HIT %:    99.9999  MISS %: 8.52114e-05   MPKI: 0.00018
L1I LOAD      ACCESS:   10561970  HIT:   10561961  MISS:          9  HIT %:    99.9999  MISS %: 8.52114e-05   MPKI: 0.00018
L1I PREFETCH  REQUESTED:          0  ISSUED:          0  USEFUL:          0  USELESS:          0
L1I USEFUL LOAD PREFETCHES:          0 PREFETCH ISSUED TO LOWER LEVEL:          0  ACCURACY: -nan
L1I TIMELY PREFETCHES:          0 LATE PREFETCHES: 0 DROPPED PREFETCHES: 0
L1I PREFETCHES SAME FILL-ORIGIN LEVEL: 0 DIFFERENT FILL-ORIGIN LEVEL: 0
L1I AVERAGE MISS LATENCY: 479 cycles
L1I RQ	ACCESS:   15102127	FORWARD:          0	MERGED:    4540158	TO_CACHE:   10561969

BTB TOTAL     ACCESS:    5571283  HIT:    5571235  MISS:         48  HIT %:    99.9991  MISS %: 0.000861561   MPKI: 0.00096
BTB BRANCH_DIRECT_JUMP	ACCESS:         20  HIT:          9  MISS:         11
BTB BRANCH_INDIRECT	ACCESS:          0  HIT:          0  MISS:          0
BTB BRANCH_CONDITIONAL	ACCESS:    5571255  HIT:    5571224  MISS:         31
BTB BRANCH_DIRECT_CALL	ACCESS:          4  HIT:          1  MISS:          3
BTB BRANCH_INDIRECT_CALL	ACCESS:          0  HIT:          0  MISS:          0
BTB BRANCH_RETURN	ACCESS:          4  HIT:          1  MISS:          3
BTB BRANCH_OTHER ACCESS:          0  HIT:          0  MISS:          0

L2C TOTAL     ACCESS:    2312391  HIT:    1022263  MISS:    1290128  HIT %:    44.2081  MISS %:    55.7919   MPKI: 25.8026
L2C LOAD      ACCESS:       7031  HIT:        886  MISS:       6145  HIT %:    12.6013  MISS %:    87.3987   MPKI: 0.1229
L2C DATA LOAD MPKI: 0.12272
L2C INSTRUCTION LOAD MPKI: 0.00018
L2C RFO       ACCESS:     985238  HIT:          0  MISS:     985238  HIT %:          0  MISS %:        100   MPKI: 19.7048
L2C PREFETCH  ACCESS:     314502  HIT:      18380  MISS:     296122  HIT %:    5.84416  MISS %:    94.1558   MPKI: 5.92244
AGUS PREFETCH L1 MISS: 0
L2C DATA PREFETCH MPKI: 5.92244
L2C INSTRUCTION PREFETCH MPKI: 0
L2C WRITEBACK ACCESS:     985478  HIT:     985478  MISS:          0  HIT %:        100  MISS %:          0   MPKI: 0
L2C LOAD TRANSLATION ACCESS:      20142  HIT:      17519  MISS:       2623  HIT %:    86.9775  MISS %:    13.0225   MPKI: 0.05246
L2C PREFETCH  REQUESTED:          0  ISSUED:          0  USEFUL:        878  USELESS:     293532
L2C USEFUL LOAD PREFETCHES:        878 PREFETCH ISSUED TO LOWER LEVEL:     296122  ACCURACY: 0.296499
L2C TIMELY PREFETCHES:        878 LATE PREFETCHES: 0 DROPPED PREFETCHES: 0
L2C PREFETCHES SAME FILL-ORIGIN LEVEL: 0 DIFFERENT FILL-ORIGIN LEVEL: 0
L2C AVERAGE MISS LATENCY: 271.998 cycles
L2C RQ	ACCESS:    1012411	FORWARD:          0	MERGED:          0	TO_CACHE:    1012411
L2C WQ	ACCESS:     985478	FORWARD:          0	MERGED:          0	TO_CACHE:     985478
L2C PQ	ACCESS:     314502	FORWARD:          0	MERGED:          0	TO_CACHE:     314502

L2C Instructions Evicting Data 9
L2C Translations Evicting Data 2623
L2C Data Evicting Data 1284864
L2C Instructions Evicting Instructions 0
L2C Translations Evicting Instructions 0
L2C Data Evicting Instructions 9
L2C Instructions Evicting Translations 0
L2C Translations Evicting Translations 0
L2C Data Evicting Translations 2623
L2C Dense regions hint from L2: 0
PSCL5 TOTAL     ACCESS:      20133  HIT:      20133  MISS:          0  HIT %:        100  MISS %:          0   MPKI: 0
PSCL5 LOAD TRANSLATION ACCESS:      20133  HIT:      20133  MISS:          0  HIT %:        100  MISS %:          0   MPKI: 0
PSCL5 PREFETCH  REQUESTED:          0  ISSUED:          0  USEFUL:          0  USELESS:          0
PSCL5 USEFUL LOAD PREFETCHES:          0 PREFETCH ISSUED TO LOWER LEVEL:          0  ACCURACY: -nan
PSCL5 TIMELY PREFETCHES:          0 LATE PREFETCHES: 0 DROPPED PREFETCHES: 0
PSCL5 PREFETCHES SAME FILL-ORIGIN LEVEL: 0 DIFFERENT FILL-ORIGIN LEVEL: 0

PSCL4 TOTAL     ACCESS:      20133  HIT:      20133  MISS:          0  HIT %:        100  MISS %:          0   MPKI: 0
PSCL4 LOAD TRANSLATION ACCESS:      20133  HIT:      20133  MISS:          0  HIT %:        100  MISS %:          0   MPKI: 0
PSCL4 PREFETCH  REQUESTED:          0  ISSUED:          0  USEFUL:          0  USELESS:          0
PSCL4 USEFUL LOAD PREFETCHES:          0 PREFETCH ISSUED TO LOWER LEVEL:          0  ACCURACY: -nan
PSCL4 TIMELY PREFETCHES:          0 LATE PREFETCHES: 0 DROPPED PREFETCHES: 0
PSCL4 PREFETCHES SAME FILL-ORIGIN LEVEL: 0 DIFFERENT FILL-ORIGIN LEVEL: 0

PSCL3 TOTAL     ACCESS:      20133  HIT:      20133  MISS:          0  HIT %:        100  MISS %:          0   MPKI: 0
PSCL3 LOAD TRANSLATION ACCESS:      20133  HIT:      20133  MISS:          0  HIT %:        100  MISS %:          0   MPKI: 0
PSCL3 PREFETCH  REQUESTED:          0  ISSUED:          0  USEFUL:          0  USELESS:          0
PSCL3 USEFUL LOAD PREFETCHES:          0 PREFETCH ISSUED TO LOWER LEVEL:          0  ACCURACY: -nan
PSCL3 TIMELY PREFETCHES:          0 LATE PREFETCHES: 0 DROPPED PREFETCHES: 0
PSCL3 PREFETCHES SAME FILL-ORIGIN LEVEL: 0 DIFFERENT FILL-ORIGIN LEVEL: 0

PSCL2 TOTAL     ACCESS:      20133  HIT:      20085  MISS:         48  HIT %:    99.7616  MISS %:   0.238415   MPKI: 0.00096
PSCL2 LOAD TRANSLATION ACCESS:      20133  HIT:      20085  MISS:         48  HIT %:    99.7616  MISS %:   0.238415   MPKI: 0.00096
PSCL2 PREFETCH  REQUESTED:          0  ISSUED:          0  USEFUL:          0  USELESS:          0
PSCL2 USEFUL LOAD PREFETCHES:          0 PREFETCH ISSUED TO LOWER LEVEL:          0  ACCURACY: -nan
PSCL2 TIMELY PREFETCHES:          0 LATE PREFETCHES: 0 DROPPED PREFETCHES: 0
PSCL2 PREFETCHES SAME FILL-ORIGIN LEVEL: 0 DIFFERENT FILL-ORIGIN LEVEL: 0

LLC TOTAL     ACCESS:    2277162  HIT:     987287  MISS:    1289875  HIT %:     43.356  MISS %:     56.644   MPKI: 25.7975
LLC LOAD      ACCESS:       6145  HIT:          0  MISS:       6145  HIT %:          0  MISS %:        100   MPKI: 0.1229
LLC RFO       ACCESS:     985238  HIT:          0  MISS:     985238  HIT %:          0  MISS %:        100   MPKI: 19.7048
LLC PREFETCH  ACCESS:     296122  HIT:        203  MISS:     295919  HIT %:  0.0685528  MISS %:    99.9314   MPKI: 5.91838
AGUS PREFETCH L1 MISS: 0
LLC WRITEBACK ACCESS:     987034  HIT:     987034  MISS:          0  HIT %:        100  MISS %:          0   MPKI: 0
LLC LOAD TRANSLATION ACCESS:       2623  HIT:         50  MISS:       2573  HIT %:    1.90621  MISS %:    98.0938   MPKI: 0.05146
LLC PREFETCH  REQUESTED:          0  ISSUED:          0  USEFUL:          0  USELESS:     289614
LLC USEFUL LOAD PREFETCHES:          0 PREFETCH ISSUED TO LOWER LEVEL:     295919  ACCURACY: 0
LLC TIMELY PREFETCHES:          0 LATE PREFETCHES: 0 DROPPED PREFETCHES: 0
LLC PREFETCHES SAME FILL-ORIGIN LEVEL: 0 DIFFERENT FILL-ORIGIN LEVEL: 0
LLC AVERAGE MISS LATENCY: 240.458 cycles
LLC RQ	ACCESS:     994006	FORWARD:          0	MERGED:          0	TO_CACHE:     994006
LLC WQ	ACCESS:     987034	FORWARD:          0	MERGED:          0	TO_CACHE:     987034
LLC PQ	ACCESS:     296122	FORWARD:          0	MERGED:          0	TO_CACHE:     296122

LLC Dense regions hint to LLC: 0

RAW hits: 4
Loads Generated: 5316904
Loads sent to L1D: 5316900
Stores Generated: 9920651
Stores sent to L1D: 9920647
Major fault: 0 Minor fault: 42653
Allocated PAGES: 42653
CPU 0 L1D nextline prefetcher final stats
 Action = 30 : 670756
 Action = 23 : 43986
 Action = 16 : 265734
 Action = 11 : 35587
 Action = 10 : 128373
 Action = 22 : 74911
 Action = 5 : 82414
 Action = 32 : 111190
 Action = -3 : 131144
 Action = 12 : 35147
 Action = -6 : 42066
 Action = 3 : 63998
 Action = 0 : 557821
 Action = -1 : 173682
 Action = 1 : 6695705
 Action = 4 : 34404
---------------Prefetch degree counts-----------------------
 prefetch degree = 5 : 1866
 number of times low bandwidth is  6128076
number of times high bandwidth is 2571603
34 : 114848
67 : 119616
32 : 113824
58 : 119072
72 : 122528
62 : 119264
65 : 118752
69 : 118112
48 : 117696
39 : 119584
37 : 115008
83 : 119712
82 : 116704
91 : 114976
71 : 121888
111 : 114368
16 : 105152
17 : 110176
114 : 113312
59 : 116608
79 : 122592
3 : 112000
35 : 109280
57 : 112448
19 : 110336
112 : 110816
73 : 120736
21 : 114720
18 : 115264
110 : 114720
20 : 121792
61 : 114368
24 : 121120
38 : 108352
36 : 114400
70 : 126592
33 : 114880
127 : 108640
60 : 117824
63 : 111936
81 : 120288
23 : 125408
47 : 111136
113 : 116384
0 : 625632
68 : 118560
49 : 119776
64 : 115648
74 : 121408
31 : 116064
26 : 112416
105 : 121440
101 : 115264
22 : 116736
93 : 121152
14 : 121568
42 : 116256
121 : 117184
5 : 114688
84 : 114080
104 : 126624
25 : 112640
9 : 115552
88 : 115328
8 : 115072
87 : 124032
122 : 118464
43 : 116288
51 : 114272
125 : 118464
46 : 109888
2 : 46672608
40 : 117440
119 : 114304
90 : 124480
11 : 113952
97 : 119072
117 : 122432
80 : 119264
1 : 1108927232
66 : 119264
103 : 122016
92 : 115936
13 : 115776
102 : 121280
89 : 119680
10 : 117056
126 : 118016
15 : 115840
94 : 116480
41 : 116704
120 : 112544
4 : 118624
115 : 118656
50 : 115616
99 : 114432
52 : 116352
27 : 103744
106 : 115808
124 : 121920
45 : 113632
6 : 111744
85 : 122816
78 : 121280
100 : 115552
28 : 108672
107 : 118752
123 : 116320
44 : 113920
7 : 111104
86 : 116704
53 : 117216
12 : 114368
95 : 119744
118 : 117536
77 : 118016
54 : 116384
29 : 115744
108 : 114816
96 : 117696
98 : 120288
76 : 119392
30 : 107712
109 : 117312
55 : 112160
75 : 124800
116 : 119328
56 : 114240

DRAM Statistics
 CHANNEL 0
 RQ ROW_BUFFER_HIT:     442250  ROW_BUFFER_MISS:     847624
 DBUS_CONGESTED:        920
 WQ ROW_BUFFER_HIT:     274877  ROW_BUFFER_MISS:     716767  FULL:          0

 AVG_CONGESTED_CYCLE: 5
 All warmup complete: 2
Channel 0 Bank busy for read cycles: 0
Channel 0 Bank busy for write cycles: 0
Channel 0
Rank 0
0banks busy for read cycles: 46757
0banks busy for write cycles: 3
1banks busy for read cycles: 4141190
1banks busy for write cycles: 114835
2banks busy for read cycles: 9273416
2banks busy for write cycles: 113826
3banks busy for read cycles: 5588878
3banks busy for write cycles: 113838
4banks busy for read cycles: 3899618
4banks busy for write cycles: 112911
5banks busy for read cycles: 3374503
5banks busy for write cycles: 112897
6banks busy for read cycles: 3623865
6banks busy for write cycles: 114511
7banks busy for read cycles: 3467173
7banks busy for write cycles: 1123781
8banks busy for read cycles: 4790511
8banks busy for write cycles: 18225474

CPU 0 Branch Prediction Accuracy: 99.1289% MPKI: 1.09324 Average ROB Occupancy at Mispredict: 24.4174
Branch types
NOT_BRANCH: 43724674 87.4493%
BRANCH_DIRECT_JUMP: 20 4e-05%
BRANCH_INDIRECT: 0 0%
BRANCH_CONDITIONAL: 6275318 12.5506%
BRANCH_DIRECT_CALL: 4 8e-06%
BRANCH_INDIRECT_CALL: 0 0%
BRANCH_RETURN: 4 8e-06%
BRANCH_OTHER: 0 0%

DRAM PAGES: 1048576
Allocated PAGES: 42653
