
*** ChampSim Multicore Out-of-Order Simulator ***

Warmup Instructions: 50000000
Simulation Instructions: 50000000
Number of CPUs: 1
LLC sets: 2048
LLC ways: 16
Off-chip DRAM Size: 4096 MB Channels: 1 Width: 64-bit Data Rate: 6400 MT/s
CPU 0 runs ../Ligra/ligra_BC.com-lj.ungraph.gcc_6.3.0_O3.drop_26750M.length_250M.champsimtrace.xz
.xz
CPU 0 Bimodal branch predictor
BTB has LRU replacement policy
ITLB has LRU replacement policy
DTLB has LRU replacement policy
STLB has LRU replacement policy
L1I has LRU replacement policy
CPU 0 L1D - Pythia Preftecher 
L1D has LRU replacement policy
--------- This is L2C prefetcher --------------
L2C has LRU replacement policy
LLC has LRU replacement policy
Heartbeat CPU 0 instructions: 10000003 cycles: 3333411 heartbeat IPC: 2.99993 cumulative IPC: 2.99993 (Simulation time: 0 hr 0 min 9 sec) 
Heartbeat CPU 0 instructions: 20000000 cycles: 6666742 heartbeat IPC: 3 cumulative IPC: 2.99997 (Simulation time: 0 hr 0 min 19 sec) 
Heartbeat CPU 0 instructions: 30000003 cycles: 9999732 heartbeat IPC: 3.00031 cumulative IPC: 3.00008 (Simulation time: 0 hr 0 min 29 sec) 
Heartbeat CPU 0 instructions: 40000003 cycles: 13331764 heartbeat IPC: 3.00117 cumulative IPC: 3.00035 (Simulation time: 0 hr 0 min 39 sec) 
Heartbeat CPU 0 instructions: 50000000 cycles: 16664000 heartbeat IPC: 3.00099 cumulative IPC: 3.00048 (Simulation time: 0 hr 0 min 48 sec) 

Warmup complete CPU 0 instructions: 50000003 cycles: 16664001 (Simulation time: 0 hr 0 min 48 sec) 

Heartbeat CPU 0 instructions: 60000000 cycles: 43101108 heartbeat IPC: 0.378256 cumulative IPC: 0.378256 (Simulation time: 0 hr 1 min 4 sec) 
Heartbeat CPU 0 instructions: 70000000 cycles: 68925116 heartbeat IPC: 0.387237 cumulative IPC: 0.382694 (Simulation time: 0 hr 1 min 20 sec) 
Heartbeat CPU 0 instructions: 80000000 cycles: 92367943 heartbeat IPC: 0.42657 cumulative IPC: 0.396281 (Simulation time: 0 hr 1 min 40 sec) 
Heartbeat CPU 0 instructions: 90000001 cycles: 114359248 heartbeat IPC: 0.454725 cumulative IPC: 0.409436 (Simulation time: 0 hr 2 min 12 sec) 
Heartbeat CPU 0 instructions: 100000001 cycles: 134231765 heartbeat IPC: 0.503208 cumulative IPC: 0.425287 (Simulation time: 0 hr 2 min 43 sec) 
Finished CPU 0 instructions: 50000002 cycles: 117567765 cumulative IPC: 0.425287 (Simulation time: 0 hr 2 min 43 sec) 

ChampSim completed all CPUs

Region of Interest Statistics

CPU 0 cumulative IPC: 0.425287 instructions: 50000002 cycles: 117567765
ITLB TOTAL     ACCESS:    7825487  HIT:    7825486  MISS:          1  HIT %:        100  MISS %: 1.27788e-05   MPKI: 2e-05
ITLB LOAD TRANSLATION ACCESS:    7825487  HIT:    7825486  MISS:          1  HIT %:        100  MISS %: 1.27788e-05   MPKI: 2e-05
ITLB PREFETCH  REQUESTED:          0  ISSUED:          0  USEFUL:          0  USELESS:          0
ITLB USEFUL LOAD PREFETCHES:          0 PREFETCH ISSUED TO LOWER LEVEL:          0  ACCURACY: -nan
ITLB TIMELY PREFETCHES:          0 LATE PREFETCHES: 0 DROPPED PREFETCHES: 0
ITLB PREFETCHES SAME FILL-ORIGIN LEVEL: 0 DIFFERENT FILL-ORIGIN LEVEL: 0
ITLB AVERAGE MISS LATENCY: 320 cycles
ITLB RQ	ACCESS:    7825507	FORWARD:          0	MERGED:         21	TO_CACHE:    7825486

DTLB TOTAL     ACCESS:    9190541  HIT:    9163517  MISS:      27024  HIT %:     99.706  MISS %:   0.294041   MPKI: 0.54048
DTLB LOAD TRANSLATION ACCESS:    9190541  HIT:    9163517  MISS:      27024  HIT %:     99.706  MISS %:   0.294041   MPKI: 0.54048
DTLB PREFETCH  REQUESTED:          0  ISSUED:          0  USEFUL:          0  USELESS:          0
DTLB USEFUL LOAD PREFETCHES:          0 PREFETCH ISSUED TO LOWER LEVEL:          0  ACCURACY: -nan
DTLB TIMELY PREFETCHES:          0 LATE PREFETCHES: 0 DROPPED PREFETCHES: 0
DTLB PREFETCHES SAME FILL-ORIGIN LEVEL: 0 DIFFERENT FILL-ORIGIN LEVEL: 0
DTLB AVERAGE MISS LATENCY: 158.738 cycles
DTLB RQ	ACCESS:   12932187	FORWARD:          0	MERGED:    3685735	TO_CACHE:    9246452

STLB TOTAL     ACCESS:    2699982  HIT:    2673139  MISS:      26843  HIT %:    99.0058  MISS %:   0.994192   MPKI: 0.53686
STLB LOAD TRANSLATION ACCESS:      27025  HIT:        182  MISS:      26843  HIT %:   0.673451  MISS %:    99.3265   MPKI: 0.53686
STLB TRANSLATION FROM L1D PREFETCHER ACCESS:    2672957  HIT:    2672957  MISS:          0  HIT %:        100  MISS %:          0   MPKI: 0
STLB PREFETCH  REQUESTED:          0  ISSUED:          0  USEFUL:          0  USELESS:          0
STLB USEFUL LOAD PREFETCHES:          0 PREFETCH ISSUED TO LOWER LEVEL:          0  ACCURACY: -nan
STLB TIMELY PREFETCHES:          0 LATE PREFETCHES: 0 DROPPED PREFETCHES: 0
STLB PREFETCHES SAME FILL-ORIGIN LEVEL: 0 DIFFERENT FILL-ORIGIN LEVEL: 0
STLB AVERAGE MISS LATENCY: 150.329 cycles
STLB RQ	ACCESS:   10874444	FORWARD:          0	MERGED:    8174462	TO_CACHE:    2699982

STLB Hit, L1D data hit: 0
STLB Hit, L2C data hit: 0
STLB Hit, LLC data hit: 0
STLB Hit, LLC data miss: 0
STLB STLB hints to L2: 0
L1D TOTAL     ACCESS:   16488630  HIT:   14812680  MISS:    1675950  HIT %:    89.8357  MISS %:    10.1643   MPKI: 33.519
L1D LOAD      ACCESS:    4481126  HIT:    4090910  MISS:     390216  HIT %:     91.292  MISS %:    8.70799   MPKI: 7.80432
L1D RFO       ACCESS:    2475126  HIT:    1789945  MISS:     685181  HIT %:    72.3173  MISS %:    27.6827   MPKI: 13.7036
L1D PREFETCH  ACCESS:    9532378  HIT:    8931825  MISS:     600553  HIT %:    93.6999  MISS %:    6.30014   MPKI: 12.0111
AGUS PREFETCH L1 MISS: 0
L1D PREFETCH  REQUESTED:   24735866  ISSUED:   24637754  USEFUL:     480202  USELESS:     120212
L1D USEFUL LOAD PREFETCHES:     480202 PREFETCH ISSUED TO LOWER LEVEL:     796365  ACCURACY: 60.2992
L1D TIMELY PREFETCHES:     480202 LATE PREFETCHES: 195808 DROPPED PREFETCHES: 0
L1D PREFETCHES SAME FILL-ORIGIN LEVEL: 796365 DIFFERENT FILL-ORIGIN LEVEL: 0
L1D AVERAGE MISS LATENCY: 291.441 cycles
L1D RQ	ACCESS:   10366956	FORWARD:          0	MERGED:    5745356	TO_CACHE:    4621600
L1D WQ	ACCESS:    8310588	FORWARD:          0	MERGED:          1	TO_CACHE:    8310587
L1D PQ	ACCESS:   13790335	FORWARD:          0	MERGED:    2942916	TO_CACHE:   10847419

L1D UNIQUE REGIONS ACCESSED: 0
L1D REGIONS CONFLICTS: 0
L1D Cross Page Prefetch Requests: 0
L1D Same Page Prefetch Requests: 27151915
L1D ROI Sum of L1D PQ occupancy: 200040467
L1D PREFETCHES PUSHED FROM L2C: 0
L1I TOTAL     ACCESS:    7825506  HIT:    7825491  MISS:         15  HIT %:    99.9998  MISS %: 0.000191681   MPKI: 0.0003
L1I LOAD      ACCESS:    7825506  HIT:    7825491  MISS:         15  HIT %:    99.9998  MISS %: 0.000191681   MPKI: 0.0003
L1I PREFETCH  REQUESTED:          0  ISSUED:          0  USEFUL:          0  USELESS:          0
L1I USEFUL LOAD PREFETCHES:          0 PREFETCH ISSUED TO LOWER LEVEL:          0  ACCURACY: -nan
L1I TIMELY PREFETCHES:          0 LATE PREFETCHES: 0 DROPPED PREFETCHES: 0
L1I PREFETCHES SAME FILL-ORIGIN LEVEL: 0 DIFFERENT FILL-ORIGIN LEVEL: 0
L1I AVERAGE MISS LATENCY: 222.6 cycles
L1I RQ	ACCESS:   14250898	FORWARD:          0	MERGED:    6425391	TO_CACHE:    7825507

BTB TOTAL     ACCESS:    8792349  HIT:    8792267  MISS:         82  HIT %:    99.9991  MISS %: 0.000932629   MPKI: 0.00164
BTB BRANCH_DIRECT_JUMP	ACCESS:         44  HIT:         24  MISS:         20
BTB BRANCH_INDIRECT	ACCESS:          0  HIT:          0  MISS:          0
BTB BRANCH_CONDITIONAL	ACCESS:    8792291  HIT:    8792241  MISS:         50
BTB BRANCH_DIRECT_CALL	ACCESS:          6  HIT:          1  MISS:          5
BTB BRANCH_INDIRECT_CALL	ACCESS:          0  HIT:          0  MISS:          0
BTB BRANCH_RETURN	ACCESS:          8  HIT:          1  MISS:          7
BTB BRANCH_OTHER ACCESS:          0  HIT:          0  MISS:          0

L2C TOTAL     ACCESS:    2388258  HIT:     710181  MISS:    1678077  HIT %:    29.7364  MISS %:    70.2636   MPKI: 33.5615
L2C LOAD      ACCESS:     194423  HIT:         67  MISS:     194356  HIT %:  0.0344609  MISS %:    99.9655   MPKI: 3.88712
L2C DATA LOAD MPKI: 3.88682
L2C INSTRUCTION LOAD MPKI: 0.0003
L2C RFO       ACCESS:     685181  HIT:         14  MISS:     685167  HIT %: 0.00204326  MISS %:     99.998   MPKI: 13.7033
L2C PREFETCH  ACCESS:     796361  HIT:       1243  MISS:     795118  HIT %:   0.156085  MISS %:    99.8439   MPKI: 15.9024
AGUS PREFETCH L1 MISS: 0
L2C DATA PREFETCH MPKI: 15.9024
L2C INSTRUCTION PREFETCH MPKI: 0
L2C WRITEBACK ACCESS:     685447  HIT:     685445  MISS:          2  HIT %:    99.9997  MISS %: 0.00029178   MPKI: 4e-05
L2C LOAD TRANSLATION ACCESS:      26846  HIT:      23412  MISS:       3434  HIT %:    87.2085  MISS %:    12.7915   MPKI: 0.06868
L2C PREFETCH  REQUESTED:          0  ISSUED:          0  USEFUL:         79  USELESS:     792455
L2C USEFUL LOAD PREFETCHES:         79 PREFETCH ISSUED TO LOWER LEVEL:     795122  ACCURACY: 0.00993558
L2C TIMELY PREFETCHES:         79 LATE PREFETCHES: 0 DROPPED PREFETCHES: 0
L2C PREFETCHES SAME FILL-ORIGIN LEVEL: 0 DIFFERENT FILL-ORIGIN LEVEL: 0
L2C AVERAGE MISS LATENCY: 275.673 cycles
L2C RQ	ACCESS:     906450	FORWARD:          0	MERGED:          0	TO_CACHE:     906450
L2C WQ	ACCESS:     685447	FORWARD:          0	MERGED:          0	TO_CACHE:     685447
L2C PQ	ACCESS:     796365	FORWARD:          0	MERGED:          0	TO_CACHE:     796365

L2C Instructions Evicting Data 15
L2C Translations Evicting Data 3427
L2C Data Evicting Data 1671194
L2C Instructions Evicting Instructions 0
L2C Translations Evicting Instructions 0
L2C Data Evicting Instructions 15
L2C Instructions Evicting Translations 0
L2C Translations Evicting Translations 7
L2C Data Evicting Translations 3417
L2C Dense regions hint from L2: 0
PSCL5 TOTAL     ACCESS:      26843  HIT:      26843  MISS:          0  HIT %:        100  MISS %:          0   MPKI: 0
PSCL5 LOAD TRANSLATION ACCESS:      26843  HIT:      26843  MISS:          0  HIT %:        100  MISS %:          0   MPKI: 0
PSCL5 PREFETCH  REQUESTED:          0  ISSUED:          0  USEFUL:          0  USELESS:          0
PSCL5 USEFUL LOAD PREFETCHES:          0 PREFETCH ISSUED TO LOWER LEVEL:          0  ACCURACY: -nan
PSCL5 TIMELY PREFETCHES:          0 LATE PREFETCHES: 0 DROPPED PREFETCHES: 0
PSCL5 PREFETCHES SAME FILL-ORIGIN LEVEL: 0 DIFFERENT FILL-ORIGIN LEVEL: 0

PSCL4 TOTAL     ACCESS:      26843  HIT:      26843  MISS:          0  HIT %:        100  MISS %:          0   MPKI: 0
PSCL4 LOAD TRANSLATION ACCESS:      26843  HIT:      26843  MISS:          0  HIT %:        100  MISS %:          0   MPKI: 0
PSCL4 PREFETCH  REQUESTED:          0  ISSUED:          0  USEFUL:          0  USELESS:          0
PSCL4 USEFUL LOAD PREFETCHES:          0 PREFETCH ISSUED TO LOWER LEVEL:          0  ACCURACY: -nan
PSCL4 TIMELY PREFETCHES:          0 LATE PREFETCHES: 0 DROPPED PREFETCHES: 0
PSCL4 PREFETCHES SAME FILL-ORIGIN LEVEL: 0 DIFFERENT FILL-ORIGIN LEVEL: 0

PSCL3 TOTAL     ACCESS:      26843  HIT:      26843  MISS:          0  HIT %:        100  MISS %:          0   MPKI: 0
PSCL3 LOAD TRANSLATION ACCESS:      26843  HIT:      26843  MISS:          0  HIT %:        100  MISS %:          0   MPKI: 0
PSCL3 PREFETCH  REQUESTED:          0  ISSUED:          0  USEFUL:          0  USELESS:          0
PSCL3 USEFUL LOAD PREFETCHES:          0 PREFETCH ISSUED TO LOWER LEVEL:          0  ACCURACY: -nan
PSCL3 TIMELY PREFETCHES:          0 LATE PREFETCHES: 0 DROPPED PREFETCHES: 0
PSCL3 PREFETCHES SAME FILL-ORIGIN LEVEL: 0 DIFFERENT FILL-ORIGIN LEVEL: 0

PSCL2 TOTAL     ACCESS:      26843  HIT:      26790  MISS:         53  HIT %:    99.8026  MISS %:   0.197444   MPKI: 0.00106
PSCL2 LOAD TRANSLATION ACCESS:      26843  HIT:      26790  MISS:         53  HIT %:    99.8026  MISS %:   0.197444   MPKI: 0.00106
PSCL2 PREFETCH  REQUESTED:          0  ISSUED:          0  USEFUL:          0  USELESS:          0
PSCL2 USEFUL LOAD PREFETCHES:          0 PREFETCH ISSUED TO LOWER LEVEL:          0  ACCURACY: -nan
PSCL2 TIMELY PREFETCHES:          0 LATE PREFETCHES: 0 DROPPED PREFETCHES: 0
PSCL2 PREFETCHES SAME FILL-ORIGIN LEVEL: 0 DIFFERENT FILL-ORIGIN LEVEL: 0

LLC TOTAL     ACCESS:    2366394  HIT:     688506  MISS:    1677888  HIT %:    29.0952  MISS %:    70.9048   MPKI: 33.5578
LLC LOAD      ACCESS:     194356  HIT:          5  MISS:     194351  HIT %:  0.0025726  MISS %:    99.9974   MPKI: 3.88702
LLC RFO       ACCESS:     685167  HIT:          0  MISS:     685167  HIT %:          0  MISS %:        100   MPKI: 13.7033
LLC PREFETCH  ACCESS:     795119  HIT:        191  MISS:     794928  HIT %:  0.0240216  MISS %:     99.976   MPKI: 15.8986
AGUS PREFETCH L1 MISS: 0
LLC WRITEBACK ACCESS:     688318  HIT:     688309  MISS:          9  HIT %:    99.9987  MISS %: 0.00130754   MPKI: 0.00018
LLC LOAD TRANSLATION ACCESS:       3434  HIT:          1  MISS:       3433  HIT %:  0.0291206  MISS %:    99.9709   MPKI: 0.06866
LLC PREFETCH  REQUESTED:          0  ISSUED:          0  USEFUL:          5  USELESS:     796700
LLC USEFUL LOAD PREFETCHES:          5 PREFETCH ISSUED TO LOWER LEVEL:     794931  ACCURACY: 0.000628985
LLC TIMELY PREFETCHES:          5 LATE PREFETCHES: 0 DROPPED PREFETCHES: 0
LLC PREFETCHES SAME FILL-ORIGIN LEVEL: 0 DIFFERENT FILL-ORIGIN LEVEL: 0
LLC AVERAGE MISS LATENCY: 244.14 cycles
LLC RQ	ACCESS:     882957	FORWARD:          0	MERGED:          0	TO_CACHE:     882957
LLC WQ	ACCESS:     688318	FORWARD:          0	MERGED:          0	TO_CACHE:     688318
LLC PQ	ACCESS:     795122	FORWARD:          0	MERGED:          0	TO_CACHE:     795122

LLC Dense regions hint to LLC: 0

RAW hits: 20
Loads Generated: 10366976
Loads sent to L1D: 10366956
Stores Generated: 8310597
Stores sent to L1D: 8310588
Major fault: 0 Minor fault: 27049
Allocated PAGES: 27049
CPU 0 L1D nextline prefetcher final stats
 Action = 30 : 420594
 Action = 23 : 364226
 Action = 16 : 353596
 Action = 11 : 331761
 Action = 10 : 371546
 Action = 22 : 396713
 Action = 5 : 384187
 Action = 4 : 370976
 Action = 32 : 659842
 Action = -3 : 361419
 Action = 12 : 373308
 Action = -6 : 388583
 Action = 3 : 377887
 Action = 1 : 2354946
 Action = -1 : 367638
 Action = 0 : 4397988
---------------Prefetch degree counts-----------------------
 prefetch degree = 5 : 2505
 number of times low bandwidth is  10053525
number of times high bandwidth is 1708700

DRAM Statistics
 CHANNEL 0
 RQ ROW_BUFFER_HIT:     815464  ROW_BUFFER_MISS:     862417
 DBUS_CONGESTED:        280
 WQ ROW_BUFFER_HIT:     152632  ROW_BUFFER_MISS:     531696  FULL:          0

 AVG_CONGESTED_CYCLE: 6
 All warmup complete: 2
Channel 0 Bank busy for read cycles: 0
Channel 0 Bank busy for write cycles: 0
Channel 0
Rank 0
0banks busy for read cycles: 43824943
0banks busy for write cycles: 58577
1banks busy for read cycles: 17170418
1banks busy for write cycles: 8474113
2banks busy for read cycles: 5265055
2banks busy for write cycles: 1293612
3banks busy for read cycles: 4667348
3banks busy for write cycles: 511669
4banks busy for read cycles: 4353569
4banks busy for write cycles: 304060
5banks busy for read cycles: 4356374
5banks busy for write cycles: 216031
6banks busy for read cycles: 4312449
6banks busy for write cycles: 192365
7banks busy for read cycles: 4059173
7banks busy for write cycles: 762706
8banks busy for read cycles: 5294175
8banks busy for write cycles: 12451129

CPU 0 Branch Prediction Accuracy: 87.8141% MPKI: 21.4311 Average ROB Occupancy at Mispredict: 3.35659
Branch types
NOT_BRANCH: 41206898 82.4138%
BRANCH_DIRECT_JUMP: 44 8.8e-05%
BRANCH_INDIRECT: 0 0%
BRANCH_CONDITIONAL: 8793344 17.5867%
BRANCH_DIRECT_CALL: 6 1.2e-05%
BRANCH_INDIRECT_CALL: 0 0%
BRANCH_RETURN: 8 1.6e-05%
BRANCH_OTHER: 0 0%

DRAM PAGES: 1048576
Allocated PAGES: 27049
