
*** ChampSim Multicore Out-of-Order Simulator ***

Warmup Instructions: 50000000
Simulation Instructions: 50000000
Number of CPUs: 1
LLC sets: 2048
LLC ways: 16
Off-chip DRAM Size: 4096 MB Channels: 1 Width: 64-bit Data Rate: 6400 MT/s
CPU 0 runs ../Ligra/ligra_BFSCC.com-lj.ungraph.gcc_6.3.0_O3.drop_3500M.length_250M.champsimtrace.xz
.xz
CPU 0 Bimodal branch predictor
BTB has LRU replacement policy
ITLB has LRU replacement policy
DTLB has LRU replacement policy
STLB has LRU replacement policy
L1I has LRU replacement policy
CPU 0 L1D - Pythia Preftecher 
L1D has LRU replacement policy
--------- This is L2C prefetcher --------------
L2C has LRU replacement policy
LLC has LRU replacement policy
Heartbeat CPU 0 instructions: 10000002 cycles: 3333345 heartbeat IPC: 2.99999 cumulative IPC: 2.99999 (Simulation time: 0 hr 0 min 13 sec) 
Heartbeat CPU 0 instructions: 20000000 cycles: 6666677 heartbeat IPC: 3 cumulative IPC: 3 (Simulation time: 0 hr 0 min 26 sec) 
Heartbeat CPU 0 instructions: 30000001 cycles: 10000011 heartbeat IPC: 3 cumulative IPC: 3 (Simulation time: 0 hr 0 min 39 sec) 
Heartbeat CPU 0 instructions: 40000001 cycles: 13333345 heartbeat IPC: 3 cumulative IPC: 3 (Simulation time: 0 hr 0 min 52 sec) 
Heartbeat CPU 0 instructions: 50000001 cycles: 16666678 heartbeat IPC: 3 cumulative IPC: 3 (Simulation time: 0 hr 1 min 5 sec) 

Warmup complete CPU 0 instructions: 50000001 cycles: 16666678 (Simulation time: 0 hr 1 min 5 sec) 

Heartbeat CPU 0 instructions: 60000000 cycles: 35751880 heartbeat IPC: 0.523966 cumulative IPC: 0.523966 (Simulation time: 0 hr 1 min 23 sec) 
Heartbeat CPU 0 instructions: 70000000 cycles: 54623610 heartbeat IPC: 0.529893 cumulative IPC: 0.526913 (Simulation time: 0 hr 1 min 41 sec) 
Heartbeat CPU 0 instructions: 80000000 cycles: 73355984 heartbeat IPC: 0.533835 cumulative IPC: 0.5292 (Simulation time: 0 hr 1 min 59 sec) 
Heartbeat CPU 0 instructions: 90000002 cycles: 92130828 heartbeat IPC: 0.532628 cumulative IPC: 0.530053 (Simulation time: 0 hr 2 min 17 sec) 
Heartbeat CPU 0 instructions: 100000001 cycles: 110703607 heartbeat IPC: 0.538422 cumulative IPC: 0.531706 (Simulation time: 0 hr 2 min 37 sec) 
Finished CPU 0 instructions: 50000000 cycles: 94036929 cumulative IPC: 0.531706 (Simulation time: 0 hr 2 min 37 sec) 

ChampSim completed all CPUs

Region of Interest Statistics

CPU 0 cumulative IPC: 0.531706 instructions: 50000000 cycles: 94036929
ITLB TOTAL     ACCESS:    7995032  HIT:    7995032  MISS:          0  HIT %:        100  MISS %:          0   MPKI: 0
ITLB LOAD TRANSLATION ACCESS:    7995032  HIT:    7995032  MISS:          0  HIT %:        100  MISS %:          0   MPKI: 0
ITLB PREFETCH  REQUESTED:          0  ISSUED:          0  USEFUL:          0  USELESS:          0
ITLB USEFUL LOAD PREFETCHES:          0 PREFETCH ISSUED TO LOWER LEVEL:          0  ACCURACY: -nan
ITLB TIMELY PREFETCHES:          0 LATE PREFETCHES: 0 DROPPED PREFETCHES: 0
ITLB PREFETCHES SAME FILL-ORIGIN LEVEL: 0 DIFFERENT FILL-ORIGIN LEVEL: 0
ITLB AVERAGE MISS LATENCY: -nan cycles
ITLB RQ	ACCESS:    7995033	FORWARD:          0	MERGED:          0	TO_CACHE:    7995033

DTLB TOTAL     ACCESS:   10972855  HIT:   10970060  MISS:       2795  HIT %:    99.9745  MISS %:  0.0254719   MPKI: 0.0559
DTLB LOAD TRANSLATION ACCESS:   10972855  HIT:   10970060  MISS:       2795  HIT %:    99.9745  MISS %:  0.0254719   MPKI: 0.0559
DTLB PREFETCH  REQUESTED:          0  ISSUED:          0  USEFUL:          0  USELESS:          0
DTLB USEFUL LOAD PREFETCHES:          0 PREFETCH ISSUED TO LOWER LEVEL:          0  ACCURACY: -nan
DTLB TIMELY PREFETCHES:          0 LATE PREFETCHES: 0 DROPPED PREFETCHES: 0
DTLB PREFETCHES SAME FILL-ORIGIN LEVEL: 0 DIFFERENT FILL-ORIGIN LEVEL: 0
DTLB AVERAGE MISS LATENCY: 145.259 cycles
DTLB RQ	ACCESS:   11011171	FORWARD:          0	MERGED:      35001	TO_CACHE:   10976170

STLB TOTAL     ACCESS:    2297878  HIT:    2295083  MISS:       2795  HIT %:    99.8784  MISS %:   0.121634   MPKI: 0.0559
STLB LOAD TRANSLATION ACCESS:       2795  HIT:          0  MISS:       2795  HIT %:          0  MISS %:        100   MPKI: 0.0559
STLB TRANSLATION FROM L1D PREFETCHER ACCESS:    2295083  HIT:    2295083  MISS:          0  HIT %:        100  MISS %:          0   MPKI: 0
STLB PREFETCH  REQUESTED:          0  ISSUED:          0  USEFUL:          0  USELESS:          0
STLB USEFUL LOAD PREFETCHES:          0 PREFETCH ISSUED TO LOWER LEVEL:          0  ACCURACY: -nan
STLB TIMELY PREFETCHES:          0 LATE PREFETCHES: 0 DROPPED PREFETCHES: 0
STLB PREFETCHES SAME FILL-ORIGIN LEVEL: 0 DIFFERENT FILL-ORIGIN LEVEL: 0
STLB AVERAGE MISS LATENCY: 136.259 cycles
STLB RQ	ACCESS:    8873080	FORWARD:          0	MERGED:    6575202	TO_CACHE:    2297878

STLB Hit, L1D data hit: 0
STLB Hit, L2C data hit: 0
STLB Hit, LLC data hit: 0
STLB Hit, LLC data miss: 0
STLB STLB hints to L2: 0
L1D TOTAL     ACCESS:   18973369  HIT:   18794504  MISS:     178865  HIT %:    99.0573  MISS %:   0.942716   MPKI: 3.5773
L1D LOAD      ACCESS:    5277517  HIT:    5272759  MISS:       4758  HIT %:    99.9098  MISS %:   0.090156   MPKI: 0.09516
L1D RFO       ACCESS:    4882104  HIT:    4792670  MISS:      89434  HIT %:    98.1681  MISS %:    1.83187   MPKI: 1.78868
L1D PREFETCH  ACCESS:    8813748  HIT:    8729075  MISS:      84673  HIT %:    99.0393  MISS %:   0.960692   MPKI: 1.69346
AGUS PREFETCH L1 MISS: 0
L1D PREFETCH  REQUESTED:   20994838  ISSUED:   20994755  USEFUL:      84676  USELESS:          0
L1D USEFUL LOAD PREFETCHES:      84676 PREFETCH ISSUED TO LOWER LEVEL:      84712  ACCURACY: 99.9575
L1D TIMELY PREFETCHES:      84676 LATE PREFETCHES: 39 DROPPED PREFETCHES: 0
L1D PREFETCHES SAME FILL-ORIGIN LEVEL: 84712 DIFFERENT FILL-ORIGIN LEVEL: 0
L1D AVERAGE MISS LATENCY: 169.435 cycles
L1D RQ	ACCESS:   10690511	FORWARD:          0	MERGED:    5403135	TO_CACHE:    5287376
L1D WQ	ACCESS:    5723795	FORWARD:          0	MERGED:          0	TO_CACHE:    5723795
L1D PQ	ACCESS:   12124470	FORWARD:          0	MERGED:    3254185	TO_CACHE:    8870285

L1D UNIQUE REGIONS ACCESSED: 0
L1D REGIONS CONFLICTS: 0
L1D Cross Page Prefetch Requests: 0
L1D Same Page Prefetch Requests: 31434162
L1D ROI Sum of L1D PQ occupancy: 121192978
L1D PREFETCHES PUSHED FROM L2C: 0
L1I TOTAL     ACCESS:    7995032  HIT:    7995032  MISS:          0  HIT %:        100  MISS %:          0   MPKI: 0
L1I LOAD      ACCESS:    7995032  HIT:    7995032  MISS:          0  HIT %:        100  MISS %:          0   MPKI: 0
L1I PREFETCH  REQUESTED:          0  ISSUED:          0  USEFUL:          0  USELESS:          0
L1I USEFUL LOAD PREFETCHES:          0 PREFETCH ISSUED TO LOWER LEVEL:          0  ACCURACY: -nan
L1I TIMELY PREFETCHES:          0 LATE PREFETCHES: 0 DROPPED PREFETCHES: 0
L1I PREFETCHES SAME FILL-ORIGIN LEVEL: 0 DIFFERENT FILL-ORIGIN LEVEL: 0
L1I AVERAGE MISS LATENCY: -nan cycles
L1I RQ	ACCESS:   14475899	FORWARD:          0	MERGED:    6480866	TO_CACHE:    7995033

BTB TOTAL     ACCESS:   11447585  HIT:   11447583  MISS:          2  HIT %:        100  MISS %: 1.74709e-05   MPKI: 4e-05
BTB BRANCH_DIRECT_JUMP	ACCESS:          0  HIT:          0  MISS:          0
BTB BRANCH_INDIRECT	ACCESS:          0  HIT:          0  MISS:          0
BTB BRANCH_CONDITIONAL	ACCESS:   11447585  HIT:   11447583  MISS:          2
BTB BRANCH_DIRECT_CALL	ACCESS:          0  HIT:          0  MISS:          0
BTB BRANCH_INDIRECT_CALL	ACCESS:          0  HIT:          0  MISS:          0
BTB BRANCH_RETURN	ACCESS:          0  HIT:          0  MISS:          0
BTB BRANCH_OTHER ACCESS:          0  HIT:          0  MISS:          0

L2C TOTAL     ACCESS:     271077  HIT:      91857  MISS:     179220  HIT %:    33.8859  MISS %:    66.1141   MPKI: 3.5844
L2C LOAD      ACCESS:       4719  HIT:          0  MISS:       4719  HIT %:          0  MISS %:        100   MPKI: 0.09438
L2C DATA LOAD MPKI: 0.09438
L2C INSTRUCTION LOAD MPKI: 0
L2C RFO       ACCESS:      89434  HIT:          0  MISS:      89434  HIT %:          0  MISS %:        100   MPKI: 1.78868
L2C PREFETCH  ACCESS:      84712  HIT:          0  MISS:      84712  HIT %:          0  MISS %:        100   MPKI: 1.69424
AGUS PREFETCH L1 MISS: 0
L2C DATA PREFETCH MPKI: 1.69424
L2C INSTRUCTION PREFETCH MPKI: 0
L2C WRITEBACK ACCESS:      89417  HIT:      89417  MISS:          0  HIT %:        100  MISS %:          0   MPKI: 0
L2C LOAD TRANSLATION ACCESS:       2795  HIT:       2440  MISS:        355  HIT %:    87.2987  MISS %:    12.7013   MPKI: 0.0071
L2C PREFETCH  REQUESTED:          0  ISSUED:          0  USEFUL:          0  USELESS:      84425
L2C USEFUL LOAD PREFETCHES:          0 PREFETCH ISSUED TO LOWER LEVEL:      84712  ACCURACY: 0
L2C TIMELY PREFETCHES:          0 LATE PREFETCHES: 0 DROPPED PREFETCHES: 0
L2C PREFETCHES SAME FILL-ORIGIN LEVEL: 0 DIFFERENT FILL-ORIGIN LEVEL: 0
L2C AVERAGE MISS LATENCY: 154.336 cycles
L2C RQ	ACCESS:      96948	FORWARD:          0	MERGED:          0	TO_CACHE:      96948
L2C WQ	ACCESS:      89417	FORWARD:          0	MERGED:          0	TO_CACHE:      89417
L2C PQ	ACCESS:      84712	FORWARD:          0	MERGED:          0	TO_CACHE:      84712

L2C Instructions Evicting Data 0
L2C Translations Evicting Data 355
L2C Data Evicting Data 178510
L2C Instructions Evicting Instructions 0
L2C Translations Evicting Instructions 0
L2C Data Evicting Instructions 0
L2C Instructions Evicting Translations 0
L2C Translations Evicting Translations 0
L2C Data Evicting Translations 355
L2C Dense regions hint from L2: 0
PSCL5 TOTAL     ACCESS:       2795  HIT:       2795  MISS:          0  HIT %:        100  MISS %:          0   MPKI: 0
PSCL5 LOAD TRANSLATION ACCESS:       2795  HIT:       2795  MISS:          0  HIT %:        100  MISS %:          0   MPKI: 0
PSCL5 PREFETCH  REQUESTED:          0  ISSUED:          0  USEFUL:          0  USELESS:          0
PSCL5 USEFUL LOAD PREFETCHES:          0 PREFETCH ISSUED TO LOWER LEVEL:          0  ACCURACY: -nan
PSCL5 TIMELY PREFETCHES:          0 LATE PREFETCHES: 0 DROPPED PREFETCHES: 0
PSCL5 PREFETCHES SAME FILL-ORIGIN LEVEL: 0 DIFFERENT FILL-ORIGIN LEVEL: 0

PSCL4 TOTAL     ACCESS:       2795  HIT:       2795  MISS:          0  HIT %:        100  MISS %:          0   MPKI: 0
PSCL4 LOAD TRANSLATION ACCESS:       2795  HIT:       2795  MISS:          0  HIT %:        100  MISS %:          0   MPKI: 0
PSCL4 PREFETCH  REQUESTED:          0  ISSUED:          0  USEFUL:          0  USELESS:          0
PSCL4 USEFUL LOAD PREFETCHES:          0 PREFETCH ISSUED TO LOWER LEVEL:          0  ACCURACY: -nan
PSCL4 TIMELY PREFETCHES:          0 LATE PREFETCHES: 0 DROPPED PREFETCHES: 0
PSCL4 PREFETCHES SAME FILL-ORIGIN LEVEL: 0 DIFFERENT FILL-ORIGIN LEVEL: 0

PSCL3 TOTAL     ACCESS:       2795  HIT:       2795  MISS:          0  HIT %:        100  MISS %:          0   MPKI: 0
PSCL3 LOAD TRANSLATION ACCESS:       2795  HIT:       2795  MISS:          0  HIT %:        100  MISS %:          0   MPKI: 0
PSCL3 PREFETCH  REQUESTED:          0  ISSUED:          0  USEFUL:          0  USELESS:          0
PSCL3 USEFUL LOAD PREFETCHES:          0 PREFETCH ISSUED TO LOWER LEVEL:          0  ACCURACY: -nan
PSCL3 TIMELY PREFETCHES:          0 LATE PREFETCHES: 0 DROPPED PREFETCHES: 0
PSCL3 PREFETCHES SAME FILL-ORIGIN LEVEL: 0 DIFFERENT FILL-ORIGIN LEVEL: 0

PSCL2 TOTAL     ACCESS:       2795  HIT:       2789  MISS:          6  HIT %:    99.7853  MISS %:   0.214669   MPKI: 0.00012
PSCL2 LOAD TRANSLATION ACCESS:       2795  HIT:       2789  MISS:          6  HIT %:    99.7853  MISS %:   0.214669   MPKI: 0.00012
PSCL2 PREFETCH  REQUESTED:          0  ISSUED:          0  USEFUL:          0  USELESS:          0
PSCL2 USEFUL LOAD PREFETCHES:          0 PREFETCH ISSUED TO LOWER LEVEL:          0  ACCURACY: -nan
PSCL2 TIMELY PREFETCHES:          0 LATE PREFETCHES: 0 DROPPED PREFETCHES: 0
PSCL2 PREFETCHES SAME FILL-ORIGIN LEVEL: 0 DIFFERENT FILL-ORIGIN LEVEL: 0

LLC TOTAL     ACCESS:     268654  HIT:      89434  MISS:     179220  HIT %:    33.2897  MISS %:    66.7103   MPKI: 3.5844
LLC LOAD      ACCESS:       4719  HIT:          0  MISS:       4719  HIT %:          0  MISS %:        100   MPKI: 0.09438
LLC RFO       ACCESS:      89434  HIT:          0  MISS:      89434  HIT %:          0  MISS %:        100   MPKI: 1.78868
LLC PREFETCH  ACCESS:      84712  HIT:          0  MISS:      84712  HIT %:          0  MISS %:        100   MPKI: 1.69424
AGUS PREFETCH L1 MISS: 0
LLC WRITEBACK ACCESS:      89434  HIT:      89434  MISS:          0  HIT %:        100  MISS %:          0   MPKI: 0
LLC LOAD TRANSLATION ACCESS:        355  HIT:          0  MISS:        355  HIT %:          0  MISS %:        100   MPKI: 0.0071
LLC PREFETCH  REQUESTED:          0  ISSUED:          0  USEFUL:          0  USELESS:      84320
LLC USEFUL LOAD PREFETCHES:          0 PREFETCH ISSUED TO LOWER LEVEL:      84712  ACCURACY: 0
LLC TIMELY PREFETCHES:          0 LATE PREFETCHES: 0 DROPPED PREFETCHES: 0
LLC PREFETCHES SAME FILL-ORIGIN LEVEL: 0 DIFFERENT FILL-ORIGIN LEVEL: 0
LLC AVERAGE MISS LATENCY: 124.31 cycles
LLC RQ	ACCESS:      94508	FORWARD:          0	MERGED:          0	TO_CACHE:      94508
LLC WQ	ACCESS:      89434	FORWARD:          0	MERGED:          0	TO_CACHE:      89434
LLC PQ	ACCESS:      84712	FORWARD:          0	MERGED:          0	TO_CACHE:      84712

LLC Dense regions hint to LLC: 0

RAW hits: 0
Loads Generated: 10690511
Loads sent to L1D: 10690511
Stores Generated: 5723795
Stores sent to L1D: 5723795
Major fault: 0 Minor fault: 5612
Allocated PAGES: 5612
CPU 0 L1D nextline prefetcher final stats
 Action = 30 : 198546
 Action = 23 : 201835
 Action = 16 : 214449
 Action = 11 : 341374
 Action = 10 : 200028
 Action = 22 : 242114
 Action = 5 : 251712
 Action = 4 : 330083
 Action = 32 : 656526
 Action = -3 : 372101
 Action = 12 : 178570
 Action = -6 : 557554
 Action = 3 : 517387
 Action = 1 : 3521377
 Action = -1 : 389619
 Action = 0 : 4266609
---------------Prefetch degree counts-----------------------
 prefetch degree = 5 : 2538
 number of times low bandwidth is  12246416
number of times high bandwidth is 0
0 : 10921568
2 : 27751200
1 : 1553632288
60 : 96

DRAM Statistics
 CHANNEL 0
 RQ ROW_BUFFER_HIT:     100725  ROW_BUFFER_MISS:      78495
 DBUS_CONGESTED:        102
 WQ ROW_BUFFER_HIT:      20751  ROW_BUFFER_MISS:      68599  FULL:          0

 AVG_CONGESTED_CYCLE: 5
 All warmup complete: 2
Channel 0 Bank busy for read cycles: 0
Channel 0 Bank busy for write cycles: 0
Channel 0
Rank 0
0banks busy for read cycles: 72467794
0banks busy for write cycles: 50177
1banks busy for read cycles: 11116872
1banks busy for write cycles: 6824656
2banks busy for read cycles: 1022931
2banks busy for write cycles: 637216
3banks busy for read cycles: 459887
3banks busy for write cycles: 339860
4banks busy for read cycles: 232289
4banks busy for write cycles: 216467
5banks busy for read cycles: 122235
5banks busy for write cycles: 155048
6banks busy for read cycles: 86257
6banks busy for write cycles: 128223
7banks busy for read cycles: 23987
7banks busy for write cycles: 81454
8banks busy for read cycles: 5397
8banks busy for write cycles: 66180

CPU 0 Branch Prediction Accuracy: 93.3866% MPKI: 15.1416 Average ROB Occupancy at Mispredict: 12.9157
Branch types
NOT_BRANCH: 38552411 77.1048%
BRANCH_DIRECT_JUMP: 0 0%
BRANCH_INDIRECT: 0 0%
BRANCH_CONDITIONAL: 11447591 22.8952%
BRANCH_DIRECT_CALL: 0 0%
BRANCH_INDIRECT_CALL: 0 0%
BRANCH_RETURN: 0 0%
BRANCH_OTHER: 0 0%

DRAM PAGES: 1048576
Allocated PAGES: 5612
