
*** ChampSim Multicore Out-of-Order Simulator ***

Warmup Instructions: 50000000
Simulation Instructions: 50000000
Number of CPUs: 1
LLC sets: 2048
LLC ways: 16
Off-chip DRAM Size: 4096 MB Channels: 1 Width: 64-bit Data Rate: 6400 MT/s
CPU 0 runs ../Ligra/ligra_BC.com-lj.ungraph.gcc_6.3.0_O3.drop_26750M.length_250M.champsimtrace.xz
.xz
CPU 0 Bimodal branch predictor
BTB has LRU replacement policy
ITLB has LRU replacement policy
DTLB has LRU replacement policy
STLB has LRU replacement policy
L1I has LRU replacement policy
CPU 0 L1D - Pythia Preftecher 
L1D has LRU replacement policy
--------- This is L2C prefetcher --------------
L2C has LRU replacement policy
LLC has LRU replacement policy
Heartbeat CPU 0 instructions: 10000003 cycles: 3333412 heartbeat IPC: 2.99993 cumulative IPC: 2.99993 (Simulation time: 0 hr 0 min 14 sec) 
Heartbeat CPU 0 instructions: 20000000 cycles: 6666744 heartbeat IPC: 3 cumulative IPC: 2.99997 (Simulation time: 0 hr 0 min 28 sec) 
Heartbeat CPU 0 instructions: 30000003 cycles: 9999732 heartbeat IPC: 3.00031 cumulative IPC: 3.00008 (Simulation time: 0 hr 0 min 42 sec) 
Heartbeat CPU 0 instructions: 40000003 cycles: 13331764 heartbeat IPC: 3.00117 cumulative IPC: 3.00035 (Simulation time: 0 hr 0 min 56 sec) 
Heartbeat CPU 0 instructions: 50000000 cycles: 16664008 heartbeat IPC: 3.00098 cumulative IPC: 3.00048 (Simulation time: 0 hr 1 min 10 sec) 

Warmup complete CPU 0 instructions: 50000003 cycles: 16664009 (Simulation time: 0 hr 1 min 10 sec) 

Heartbeat CPU 0 instructions: 60000000 cycles: 43322344 heartbeat IPC: 0.375117 cumulative IPC: 0.375117 (Simulation time: 0 hr 1 min 28 sec) 
Heartbeat CPU 0 instructions: 70000000 cycles: 69260975 heartbeat IPC: 0.385525 cumulative IPC: 0.38025 (Simulation time: 0 hr 1 min 46 sec) 
Heartbeat CPU 0 instructions: 80000001 cycles: 92495136 heartbeat IPC: 0.430401 cumulative IPC: 0.395616 (Simulation time: 0 hr 2 min 8 sec) 
Heartbeat CPU 0 instructions: 90000003 cycles: 114998577 heartbeat IPC: 0.444377 cumulative IPC: 0.406775 (Simulation time: 0 hr 2 min 40 sec) 
Heartbeat CPU 0 instructions: 100000003 cycles: 134817431 heartbeat IPC: 0.50457 cumulative IPC: 0.423179 (Simulation time: 0 hr 3 min 11 sec) 
Finished CPU 0 instructions: 50000000 cycles: 118153422 cumulative IPC: 0.423179 (Simulation time: 0 hr 3 min 11 sec) 

ChampSim completed all CPUs

Region of Interest Statistics

CPU 0 cumulative IPC: 0.423179 instructions: 50000000 cycles: 118153422
ITLB TOTAL     ACCESS:    7827356  HIT:    7827355  MISS:          1  HIT %:        100  MISS %: 1.27757e-05   MPKI: 2e-05
ITLB LOAD TRANSLATION ACCESS:    7827356  HIT:    7827355  MISS:          1  HIT %:        100  MISS %: 1.27757e-05   MPKI: 2e-05
ITLB PREFETCH  REQUESTED:          0  ISSUED:          0  USEFUL:          0  USELESS:          0
ITLB USEFUL LOAD PREFETCHES:          0 PREFETCH ISSUED TO LOWER LEVEL:          0  ACCURACY: -nan
ITLB TIMELY PREFETCHES:          0 LATE PREFETCHES: 0 DROPPED PREFETCHES: 0
ITLB PREFETCHES SAME FILL-ORIGIN LEVEL: 0 DIFFERENT FILL-ORIGIN LEVEL: 0
ITLB AVERAGE MISS LATENCY: 320 cycles
ITLB RQ	ACCESS:    7827376	FORWARD:          0	MERGED:         21	TO_CACHE:    7827355

DTLB TOTAL     ACCESS:    9159111  HIT:    9132087  MISS:      27024  HIT %:    99.7049  MISS %:    0.29505   MPKI: 0.54048
DTLB LOAD TRANSLATION ACCESS:    9159111  HIT:    9132087  MISS:      27024  HIT %:    99.7049  MISS %:    0.29505   MPKI: 0.54048
DTLB PREFETCH  REQUESTED:          0  ISSUED:          0  USEFUL:          0  USELESS:          0
DTLB USEFUL LOAD PREFETCHES:          0 PREFETCH ISSUED TO LOWER LEVEL:          0  ACCURACY: -nan
DTLB TIMELY PREFETCHES:          0 LATE PREFETCHES: 0 DROPPED PREFETCHES: 0
DTLB PREFETCHES SAME FILL-ORIGIN LEVEL: 0 DIFFERENT FILL-ORIGIN LEVEL: 0
DTLB AVERAGE MISS LATENCY: 159.571 cycles
DTLB RQ	ACCESS:   12909758	FORWARD:          0	MERGED:    3694822	TO_CACHE:    9214936

STLB TOTAL     ACCESS:    2177521  HIT:    2150678  MISS:      26843  HIT %:    98.7673  MISS %:    1.23273   MPKI: 0.53686
STLB LOAD TRANSLATION ACCESS:      27025  HIT:        182  MISS:      26843  HIT %:   0.673451  MISS %:    99.3265   MPKI: 0.53686
STLB TRANSLATION FROM L1D PREFETCHER ACCESS:    2150496  HIT:    2150496  MISS:          0  HIT %:        100  MISS %:          0   MPKI: 0
STLB PREFETCH  REQUESTED:          0  ISSUED:          0  USEFUL:          0  USELESS:          0
STLB USEFUL LOAD PREFETCHES:          0 PREFETCH ISSUED TO LOWER LEVEL:          0  ACCURACY: -nan
STLB TIMELY PREFETCHES:          0 LATE PREFETCHES: 0 DROPPED PREFETCHES: 0
STLB PREFETCHES SAME FILL-ORIGIN LEVEL: 0 DIFFERENT FILL-ORIGIN LEVEL: 0
STLB AVERAGE MISS LATENCY: 151.108 cycles
STLB RQ	ACCESS:    8117220	FORWARD:          0	MERGED:    5939699	TO_CACHE:    2177521

STLB Hit, L1D data hit: 0
STLB Hit, L2C data hit: 0
STLB Hit, LLC data hit: 0
STLB Hit, LLC data miss: 0
STLB STLB hints to L2: 0
L1D TOTAL     ACCESS:   13899565  HIT:   12223107  MISS:    1676458  HIT %:    87.9388  MISS %:    12.0612   MPKI: 33.5292
L1D LOAD      ACCESS:    4460506  HIT:    4069663  MISS:     390843  HIT %:    91.2377  MISS %:     8.7623   MPKI: 7.81686
L1D RFO       ACCESS:    2502544  HIT:    1817365  MISS:     685179  HIT %:    72.6207  MISS %:    27.3793   MPKI: 13.7036
L1D PREFETCH  ACCESS:    6936515  HIT:    6336079  MISS:     600436  HIT %:    91.3438  MISS %:    8.65616   MPKI: 12.0087
AGUS PREFETCH L1 MISS: 0
L1D PREFETCH  REQUESTED:   18204365  ISSUED:   18122768  USEFUL:     479574  USELESS:     120731
L1D USEFUL LOAD PREFETCHES:     479574 PREFETCH ISSUED TO LOWER LEVEL:     782257  ACCURACY: 61.3065
L1D TIMELY PREFETCHES:     479574 LATE PREFETCHES: 181815 DROPPED PREFETCHES: 0
L1D PREFETCHES SAME FILL-ORIGIN LEVEL: 782257 DIFFERENT FILL-ORIGIN LEVEL: 0
L1D AVERAGE MISS LATENCY: 289.606 cycles
L1D RQ	ACCESS:   10366956	FORWARD:          0	MERGED:    5767784	TO_CACHE:    4599172
L1D WQ	ACCESS:    8310587	FORWARD:          0	MERGED:          1	TO_CACHE:    8310586
L1D PQ	ACCESS:   10032573	FORWARD:          0	MERGED:    1942378	TO_CACHE:    8090195

L1D UNIQUE REGIONS ACCESSED: 0
L1D REGIONS CONFLICTS: 0
L1D Cross Page Prefetch Requests: 0
L1D Same Page Prefetch Requests: 27519481
L1D ROI Sum of L1D PQ occupancy: 157549187
L1D PREFETCHES PUSHED FROM L2C: 0
L1I TOTAL     ACCESS:    7827375  HIT:    7827360  MISS:         15  HIT %:    99.9998  MISS %: 0.000191635   MPKI: 0.0003
L1I LOAD      ACCESS:    7827375  HIT:    7827360  MISS:         15  HIT %:    99.9998  MISS %: 0.000191635   MPKI: 0.0003
L1I PREFETCH  REQUESTED:          0  ISSUED:          0  USEFUL:          0  USELESS:          0
L1I USEFUL LOAD PREFETCHES:          0 PREFETCH ISSUED TO LOWER LEVEL:          0  ACCURACY: -nan
L1I TIMELY PREFETCHES:          0 LATE PREFETCHES: 0 DROPPED PREFETCHES: 0
L1I PREFETCHES SAME FILL-ORIGIN LEVEL: 0 DIFFERENT FILL-ORIGIN LEVEL: 0
L1I AVERAGE MISS LATENCY: 215.933 cycles
L1I RQ	ACCESS:   14251331	FORWARD:          0	MERGED:    6423955	TO_CACHE:    7827376

BTB TOTAL     ACCESS:    8792351  HIT:    8792269  MISS:         82  HIT %:    99.9991  MISS %: 0.000932629   MPKI: 0.00164
BTB BRANCH_DIRECT_JUMP	ACCESS:         44  HIT:         24  MISS:         20
BTB BRANCH_INDIRECT	ACCESS:          0  HIT:          0  MISS:          0
BTB BRANCH_CONDITIONAL	ACCESS:    8792293  HIT:    8792243  MISS:         50
BTB BRANCH_DIRECT_CALL	ACCESS:          6  HIT:          1  MISS:          5
BTB BRANCH_INDIRECT_CALL	ACCESS:          0  HIT:          0  MISS:          0
BTB BRANCH_RETURN	ACCESS:          8  HIT:          1  MISS:          7
BTB BRANCH_OTHER ACCESS:          0  HIT:          0  MISS:          0

L2C TOTAL     ACCESS:    2388766  HIT:     710279  MISS:    1678487  HIT %:    29.7341  MISS %:    70.2659   MPKI: 33.5697
L2C LOAD      ACCESS:     209043  HIT:         76  MISS:     208967  HIT %:  0.0363562  MISS %:    99.9636   MPKI: 4.17934
L2C DATA LOAD MPKI: 4.17904
L2C INSTRUCTION LOAD MPKI: 0.0003
L2C RFO       ACCESS:     685179  HIT:          7  MISS:     685172  HIT %: 0.00102163  MISS %:     99.999   MPKI: 13.7034
L2C PREFETCH  ACCESS:     782251  HIT:       1339  MISS:     780912  HIT %:   0.171173  MISS %:    99.8288   MPKI: 15.6182
AGUS PREFETCH L1 MISS: 0
L2C DATA PREFETCH MPKI: 15.6182
L2C INSTRUCTION PREFETCH MPKI: 0
L2C WRITEBACK ACCESS:     685447  HIT:     685445  MISS:          2  HIT %:    99.9997  MISS %: 0.00029178   MPKI: 4e-05
L2C LOAD TRANSLATION ACCESS:      26846  HIT:      23412  MISS:       3434  HIT %:    87.2085  MISS %:    12.7915   MPKI: 0.06868
L2C PREFETCH  REQUESTED:          0  ISSUED:          0  USEFUL:         82  USELESS:     778186
L2C USEFUL LOAD PREFETCHES:         82 PREFETCH ISSUED TO LOWER LEVEL:     780918  ACCURACY: 0.0105005
L2C TIMELY PREFETCHES:         82 LATE PREFETCHES: 0 DROPPED PREFETCHES: 0
L2C PREFETCHES SAME FILL-ORIGIN LEVEL: 0 DIFFERENT FILL-ORIGIN LEVEL: 0
L2C AVERAGE MISS LATENCY: 273.845 cycles
L2C RQ	ACCESS:     921071	FORWARD:          0	MERGED:          0	TO_CACHE:     921071
L2C WQ	ACCESS:     685447	FORWARD:          0	MERGED:          0	TO_CACHE:     685447
L2C PQ	ACCESS:     782257	FORWARD:          0	MERGED:          0	TO_CACHE:     782257

L2C Instructions Evicting Data 15
L2C Translations Evicting Data 3428
L2C Data Evicting Data 1671605
L2C Instructions Evicting Instructions 0
L2C Translations Evicting Instructions 0
L2C Data Evicting Instructions 15
L2C Instructions Evicting Translations 0
L2C Translations Evicting Translations 6
L2C Data Evicting Translations 3416
L2C Dense regions hint from L2: 0
PSCL5 TOTAL     ACCESS:      26843  HIT:      26843  MISS:          0  HIT %:        100  MISS %:          0   MPKI: 0
PSCL5 LOAD TRANSLATION ACCESS:      26843  HIT:      26843  MISS:          0  HIT %:        100  MISS %:          0   MPKI: 0
PSCL5 PREFETCH  REQUESTED:          0  ISSUED:          0  USEFUL:          0  USELESS:          0
PSCL5 USEFUL LOAD PREFETCHES:          0 PREFETCH ISSUED TO LOWER LEVEL:          0  ACCURACY: -nan
PSCL5 TIMELY PREFETCHES:          0 LATE PREFETCHES: 0 DROPPED PREFETCHES: 0
PSCL5 PREFETCHES SAME FILL-ORIGIN LEVEL: 0 DIFFERENT FILL-ORIGIN LEVEL: 0

PSCL4 TOTAL     ACCESS:      26843  HIT:      26843  MISS:          0  HIT %:        100  MISS %:          0   MPKI: 0
PSCL4 LOAD TRANSLATION ACCESS:      26843  HIT:      26843  MISS:          0  HIT %:        100  MISS %:          0   MPKI: 0
PSCL4 PREFETCH  REQUESTED:          0  ISSUED:          0  USEFUL:          0  USELESS:          0
PSCL4 USEFUL LOAD PREFETCHES:          0 PREFETCH ISSUED TO LOWER LEVEL:          0  ACCURACY: -nan
PSCL4 TIMELY PREFETCHES:          0 LATE PREFETCHES: 0 DROPPED PREFETCHES: 0
PSCL4 PREFETCHES SAME FILL-ORIGIN LEVEL: 0 DIFFERENT FILL-ORIGIN LEVEL: 0

PSCL3 TOTAL     ACCESS:      26843  HIT:      26843  MISS:          0  HIT %:        100  MISS %:          0   MPKI: 0
PSCL3 LOAD TRANSLATION ACCESS:      26843  HIT:      26843  MISS:          0  HIT %:        100  MISS %:          0   MPKI: 0
PSCL3 PREFETCH  REQUESTED:          0  ISSUED:          0  USEFUL:          0  USELESS:          0
PSCL3 USEFUL LOAD PREFETCHES:          0 PREFETCH ISSUED TO LOWER LEVEL:          0  ACCURACY: -nan
PSCL3 TIMELY PREFETCHES:          0 LATE PREFETCHES: 0 DROPPED PREFETCHES: 0
PSCL3 PREFETCHES SAME FILL-ORIGIN LEVEL: 0 DIFFERENT FILL-ORIGIN LEVEL: 0

PSCL2 TOTAL     ACCESS:      26843  HIT:      26790  MISS:         53  HIT %:    99.8026  MISS %:   0.197444   MPKI: 0.00106
PSCL2 LOAD TRANSLATION ACCESS:      26843  HIT:      26790  MISS:         53  HIT %:    99.8026  MISS %:   0.197444   MPKI: 0.00106
PSCL2 PREFETCH  REQUESTED:          0  ISSUED:          0  USEFUL:          0  USELESS:          0
PSCL2 USEFUL LOAD PREFETCHES:          0 PREFETCH ISSUED TO LOWER LEVEL:          0  ACCURACY: -nan
PSCL2 TIMELY PREFETCHES:          0 LATE PREFETCHES: 0 DROPPED PREFETCHES: 0
PSCL2 PREFETCHES SAME FILL-ORIGIN LEVEL: 0 DIFFERENT FILL-ORIGIN LEVEL: 0

LLC TOTAL     ACCESS:    2366882  HIT:     688576  MISS:    1678306  HIT %:    29.0921  MISS %:    70.9079   MPKI: 33.5661
LLC LOAD      ACCESS:     208967  HIT:         37  MISS:     208930  HIT %:  0.0177061  MISS %:    99.9823   MPKI: 4.1786
LLC RFO       ACCESS:     685173  HIT:          2  MISS:     685171  HIT %: 0.000291897  MISS %:    99.9997   MPKI: 13.7034
LLC PREFETCH  ACCESS:     780912  HIT:        143  MISS:     780769  HIT %:  0.0183119  MISS %:    99.9817   MPKI: 15.6154
AGUS PREFETCH L1 MISS: 0
LLC WRITEBACK ACCESS:     688396  HIT:     688394  MISS:          2  HIT %:    99.9997  MISS %: 0.00029053   MPKI: 4e-05
LLC LOAD TRANSLATION ACCESS:       3434  HIT:          0  MISS:       3434  HIT %:          0  MISS %:        100   MPKI: 0.06868
LLC PREFETCH  REQUESTED:          0  ISSUED:          0  USEFUL:         32  USELESS:     781730
LLC USEFUL LOAD PREFETCHES:         32 PREFETCH ISSUED TO LOWER LEVEL:     780775  ACCURACY: 0.00409849
LLC TIMELY PREFETCHES:         32 LATE PREFETCHES: 0 DROPPED PREFETCHES: 0
LLC PREFETCHES SAME FILL-ORIGIN LEVEL: 0 DIFFERENT FILL-ORIGIN LEVEL: 0
LLC AVERAGE MISS LATENCY: 242.339 cycles
LLC RQ	ACCESS:     897576	FORWARD:          0	MERGED:          0	TO_CACHE:     897576
LLC WQ	ACCESS:     688401	FORWARD:          0	MERGED:          0	TO_CACHE:     688401
LLC PQ	ACCESS:     780918	FORWARD:          0	MERGED:          0	TO_CACHE:     780918

LLC Dense regions hint to LLC: 0

RAW hits: 20
Loads Generated: 10366976
Loads sent to L1D: 10366956
Stores Generated: 8310597
Stores sent to L1D: 8310587
Major fault: 0 Minor fault: 27049
Allocated PAGES: 27049
CPU 0 L1D nextline prefetcher final stats
 Action = 30 : 230588
 Action = 23 : 187625
 Action = 16 : 170915
 Action = 11 : 154277
 Action = 10 : 157379
 Action = 22 : 188629
 Action = 5 : 164147
 Action = 4 : 156645
 Action = 32 : 526336
 Action = -3 : 171572
 Action = 12 : 153158
 Action = -6 : 4155248
 Action = 3 : 162940
 Action = 1 : 1058239
 Action = -1 : 158964
 Action = 0 : 4455941
---------------Prefetch degree counts-----------------------
 prefetch degree = 5 : 2500
 number of times low bandwidth is  10102894
number of times high bandwidth is 1676284
74 : 1047104
75 : 1051648
55 : 1052640
78 : 1040576
54 : 1068416
79 : 1048576
53 : 1051360
52 : 1038656
51 : 1054528
85 : 1041088
88 : 1064320
87 : 1049152
89 : 1062816
43 : 1064960
42 : 1060384
41 : 1052640
92 : 1062368
93 : 1051552
39 : 1064512
38 : 1061088
37 : 1055584
34 : 1051136
99 : 1070464
31 : 1067424
102 : 1058816
103 : 1066848
28 : 1055168
111 : 1047360
6 : 1204064
7 : 1137472
8 : 1105216
66 : 1069216
15 : 1048992
65 : 1054784
64 : 1053152
61 : 1060288
21 : 1050176
59 : 1053984
58 : 1058976
80 : 1093408
50 : 1062432
57 : 1045088
77 : 1059808
117 : 1054400
20 : 1048608
29 : 1067904
72 : 1061760
90 : 1057696
62 : 1068928
83 : 1048064
68 : 1058112
71 : 1050144
127 : 1361856
48 : 1142240
124 : 1092864
45 : 1046912
126 : 1183744
47 : 1054240
56 : 1045600
110 : 1042688
9 : 1085280
98 : 1058880
19 : 1048480
32 : 1057376
30 : 1056352
109 : 1043584
95 : 1044000
16 : 1108896
35 : 1054944
114 : 1059264
27 : 1057568
106 : 1056064
96 : 1055104
17 : 1051936
97 : 1047424
18 : 1123616
49 : 1043200
12 : 1063328
91 : 1067616
100 : 1053568
26 : 1053056
105 : 1045600
76 : 1070112
113 : 1052704
2 : 48190848
81 : 1055168
1 : 1381254016
40 : 1072384
119 : 1041216
125 : 1116224
46 : 1058080
14 : 1059552
5 : 1357568
84 : 1063296
116 : 1050880
122 : 1079968
115 : 1046784
36 : 1061792
4 : 1745440
0 : 2469728
118 : 1064160
11 : 1063808
10 : 1084608
120 : 1073696
23 : 1057792
108 : 1051968
121 : 1055872
123 : 1062656
44 : 1053888
86 : 1068128
3 : 3191360
82 : 1097952
104 : 1056032
25 : 1070464
101 : 1064416
22 : 1046496
13 : 1064512
107 : 1039808
24 : 1035744
94 : 1068896
112 : 1160640
33 : 1055264
73 : 1048192
70 : 1060864
67 : 1066112
63 : 1060352
69 : 1063296
60 : 1061312

DRAM Statistics
 CHANNEL 0
 RQ ROW_BUFFER_HIT:     821575  ROW_BUFFER_MISS:     856730
 DBUS_CONGESTED:        298
 WQ ROW_BUFFER_HIT:     156109  ROW_BUFFER_MISS:     528398  FULL:          0

 AVG_CONGESTED_CYCLE: 6
 All warmup complete: 2
Channel 0 Bank busy for read cycles: 0
Channel 0 Bank busy for write cycles: 0
Channel 0
Rank 0
0banks busy for read cycles: 44464773
0banks busy for write cycles: 59642
1banks busy for read cycles: 16977728
1banks busy for write cycles: 8777106
2banks busy for read cycles: 5089347
2banks busy for write cycles: 1120126
3banks busy for read cycles: 4781067
3banks busy for write cycles: 456701
4banks busy for read cycles: 4470714
4banks busy for write cycles: 297019
5banks busy for read cycles: 4455101
5banks busy for write cycles: 224990
6banks busy for read cycles: 4369689
6banks busy for write cycles: 185798
7banks busy for read cycles: 4115039
7banks busy for write cycles: 794264
8banks busy for read cycles: 5012857
8banks busy for write cycles: 12501462

CPU 0 Branch Prediction Accuracy: 87.8141% MPKI: 21.4311 Average ROB Occupancy at Mispredict: 3.37357
Branch types
NOT_BRANCH: 41206938 82.4139%
BRANCH_DIRECT_JUMP: 44 8.8e-05%
BRANCH_INDIRECT: 0 0%
BRANCH_CONDITIONAL: 8793346 17.5867%
BRANCH_DIRECT_CALL: 6 1.2e-05%
BRANCH_INDIRECT_CALL: 0 0%
BRANCH_RETURN: 8 1.6e-05%
BRANCH_OTHER: 0 0%

DRAM PAGES: 1048576
Allocated PAGES: 27049
