
*** ChampSim Multicore Out-of-Order Simulator ***

Warmup Instructions: 50000000
Simulation Instructions: 50000000
Number of CPUs: 1
LLC sets: 2048
LLC ways: 16
Off-chip DRAM Size: 4096 MB Channels: 1 Width: 64-bit Data Rate: 6400 MT/s
CPU 0 runs ../Ligra/ligra_BFSCC.com-lj.ungraph.gcc_6.3.0_O3.drop_3500M.length_250M.champsimtrace.xz
.xz
CPU 0 Bimodal branch predictor
BTB has LRU replacement policy
ITLB has LRU replacement policy
DTLB has LRU replacement policy
STLB has LRU replacement policy
L1I has LRU replacement policy
CPU 0 L1D - Pythia Preftecher 
L1D has LRU replacement policy
--------- This is L2C prefetcher --------------
L2C has LRU replacement policy
LLC has LRU replacement policy
Heartbeat CPU 0 instructions: 10000002 cycles: 3333345 heartbeat IPC: 2.99999 cumulative IPC: 2.99999 (Simulation time: 0 hr 0 min 11 sec) 
Heartbeat CPU 0 instructions: 20000000 cycles: 6666677 heartbeat IPC: 3 cumulative IPC: 3 (Simulation time: 0 hr 0 min 22 sec) 
Heartbeat CPU 0 instructions: 30000001 cycles: 10000011 heartbeat IPC: 3 cumulative IPC: 3 (Simulation time: 0 hr 0 min 33 sec) 
Heartbeat CPU 0 instructions: 40000001 cycles: 13333345 heartbeat IPC: 3 cumulative IPC: 3 (Simulation time: 0 hr 0 min 44 sec) 
Heartbeat CPU 0 instructions: 50000001 cycles: 16666678 heartbeat IPC: 3 cumulative IPC: 3 (Simulation time: 0 hr 0 min 56 sec) 

Warmup complete CPU 0 instructions: 50000001 cycles: 16666678 (Simulation time: 0 hr 0 min 56 sec) 

Heartbeat CPU 0 instructions: 60000000 cycles: 35805924 heartbeat IPC: 0.522487 cumulative IPC: 0.522487 (Simulation time: 0 hr 1 min 14 sec) 
Heartbeat CPU 0 instructions: 70000000 cycles: 54752490 heartbeat IPC: 0.5278 cumulative IPC: 0.52513 (Simulation time: 0 hr 1 min 32 sec) 
Heartbeat CPU 0 instructions: 80000000 cycles: 73561515 heartbeat IPC: 0.53166 cumulative IPC: 0.527289 (Simulation time: 0 hr 1 min 50 sec) 
Heartbeat CPU 0 instructions: 90000002 cycles: 92417421 heartbeat IPC: 0.530338 cumulative IPC: 0.528048 (Simulation time: 0 hr 2 min 8 sec) 
Heartbeat CPU 0 instructions: 100000001 cycles: 111173840 heartbeat IPC: 0.533151 cumulative IPC: 0.52906 (Simulation time: 0 hr 2 min 27 sec) 
Finished CPU 0 instructions: 50000000 cycles: 94507162 cumulative IPC: 0.52906 (Simulation time: 0 hr 2 min 27 sec) 

ChampSim completed all CPUs

Region of Interest Statistics

CPU 0 cumulative IPC: 0.52906 instructions: 50000000 cycles: 94507162
ITLB TOTAL     ACCESS:    7995032  HIT:    7995032  MISS:          0  HIT %:        100  MISS %:          0   MPKI: 0
ITLB LOAD TRANSLATION ACCESS:    7995032  HIT:    7995032  MISS:          0  HIT %:        100  MISS %:          0   MPKI: 0
ITLB PREFETCH  REQUESTED:          0  ISSUED:          0  USEFUL:          0  USELESS:          0
ITLB USEFUL LOAD PREFETCHES:          0 PREFETCH ISSUED TO LOWER LEVEL:          0  ACCURACY: -nan
ITLB TIMELY PREFETCHES:          0 LATE PREFETCHES: 0 DROPPED PREFETCHES: 0
ITLB PREFETCHES SAME FILL-ORIGIN LEVEL: 0 DIFFERENT FILL-ORIGIN LEVEL: 0
ITLB AVERAGE MISS LATENCY: -nan cycles
ITLB RQ	ACCESS:    7995033	FORWARD:          0	MERGED:          0	TO_CACHE:    7995033

DTLB TOTAL     ACCESS:   10972634  HIT:   10969839  MISS:       2795  HIT %:    99.9745  MISS %:  0.0254725   MPKI: 0.0559
DTLB LOAD TRANSLATION ACCESS:   10972634  HIT:   10969839  MISS:       2795  HIT %:    99.9745  MISS %:  0.0254725   MPKI: 0.0559
DTLB PREFETCH  REQUESTED:          0  ISSUED:          0  USEFUL:          0  USELESS:          0
DTLB USEFUL LOAD PREFETCHES:          0 PREFETCH ISSUED TO LOWER LEVEL:          0  ACCURACY: -nan
DTLB TIMELY PREFETCHES:          0 LATE PREFETCHES: 0 DROPPED PREFETCHES: 0
DTLB PREFETCHES SAME FILL-ORIGIN LEVEL: 0 DIFFERENT FILL-ORIGIN LEVEL: 0
DTLB AVERAGE MISS LATENCY: 145.303 cycles
DTLB RQ	ACCESS:   11010955	FORWARD:          0	MERGED:      35000	TO_CACHE:   10975955

STLB TOTAL     ACCESS:    2296164  HIT:    2293369  MISS:       2795  HIT %:    99.8783  MISS %:   0.121725   MPKI: 0.0559
STLB LOAD TRANSLATION ACCESS:       2795  HIT:          0  MISS:       2795  HIT %:          0  MISS %:        100   MPKI: 0.0559
STLB TRANSLATION FROM L1D PREFETCHER ACCESS:    2293369  HIT:    2293369  MISS:          0  HIT %:        100  MISS %:          0   MPKI: 0
STLB PREFETCH  REQUESTED:          0  ISSUED:          0  USEFUL:          0  USELESS:          0
STLB USEFUL LOAD PREFETCHES:          0 PREFETCH ISSUED TO LOWER LEVEL:          0  ACCURACY: -nan
STLB TIMELY PREFETCHES:          0 LATE PREFETCHES: 0 DROPPED PREFETCHES: 0
STLB PREFETCHES SAME FILL-ORIGIN LEVEL: 0 DIFFERENT FILL-ORIGIN LEVEL: 0
STLB AVERAGE MISS LATENCY: 136.303 cycles
STLB RQ	ACCESS:    8634234	FORWARD:          0	MERGED:    6338070	TO_CACHE:    2296164

STLB Hit, L1D data hit: 0
STLB Hit, L2C data hit: 0
STLB Hit, LLC data hit: 0
STLB Hit, LLC data miss: 0
STLB STLB hints to L2: 0
L1D TOTAL     ACCESS:   18729092  HIT:   18550222  MISS:     178870  HIT %:     99.045  MISS %:   0.955038   MPKI: 3.5774
L1D LOAD      ACCESS:    5268548  HIT:    5260305  MISS:       8243  HIT %:    99.8435  MISS %:   0.156457   MPKI: 0.16486
L1D RFO       ACCESS:    4840969  HIT:    4751535  MISS:      89434  HIT %:    98.1526  MISS %:    1.84744   MPKI: 1.78868
L1D PREFETCH  ACCESS:    8619575  HIT:    8538382  MISS:      81193  HIT %:     99.058  MISS %:   0.941961   MPKI: 1.62386
AGUS PREFETCH L1 MISS: 0
L1D PREFETCH  REQUESTED:   21905692  ISSUED:   21905646  USEFUL:      81191  USELESS:          0
L1D USEFUL LOAD PREFETCHES:      81191 PREFETCH ISSUED TO LOWER LEVEL:      81285  ACCURACY: 99.8844
L1D TIMELY PREFETCHES:      81191 LATE PREFETCHES: 92 DROPPED PREFETCHES: 0
L1D PREFETCHES SAME FILL-ORIGIN LEVEL: 81285 DIFFERENT FILL-ORIGIN LEVEL: 0
L1D AVERAGE MISS LATENCY: 172.666 cycles
L1D RQ	ACCESS:   10690511	FORWARD:          0	MERGED:    5403351	TO_CACHE:    5287160
L1D WQ	ACCESS:    5723795	FORWARD:          0	MERGED:          0	TO_CACHE:    5723795
L1D PQ	ACCESS:   13274207	FORWARD:          0	MERGED:    4642768	TO_CACHE:    8631439

L1D UNIQUE REGIONS ACCESSED: 0
L1D REGIONS CONFLICTS: 0
L1D Cross Page Prefetch Requests: 0
L1D Same Page Prefetch Requests: 30741978
L1D ROI Sum of L1D PQ occupancy: 117732288
L1D PREFETCHES PUSHED FROM L2C: 0
L1I TOTAL     ACCESS:    7995032  HIT:    7995032  MISS:          0  HIT %:        100  MISS %:          0   MPKI: 0
L1I LOAD      ACCESS:    7995032  HIT:    7995032  MISS:          0  HIT %:        100  MISS %:          0   MPKI: 0
L1I PREFETCH  REQUESTED:          0  ISSUED:          0  USEFUL:          0  USELESS:          0
L1I USEFUL LOAD PREFETCHES:          0 PREFETCH ISSUED TO LOWER LEVEL:          0  ACCURACY: -nan
L1I TIMELY PREFETCHES:          0 LATE PREFETCHES: 0 DROPPED PREFETCHES: 0
L1I PREFETCHES SAME FILL-ORIGIN LEVEL: 0 DIFFERENT FILL-ORIGIN LEVEL: 0
L1I AVERAGE MISS LATENCY: -nan cycles
L1I RQ	ACCESS:   14475899	FORWARD:          0	MERGED:    6480866	TO_CACHE:    7995033

BTB TOTAL     ACCESS:   11447585  HIT:   11447583  MISS:          2  HIT %:        100  MISS %: 1.74709e-05   MPKI: 4e-05
BTB BRANCH_DIRECT_JUMP	ACCESS:          0  HIT:          0  MISS:          0
BTB BRANCH_INDIRECT	ACCESS:          0  HIT:          0  MISS:          0
BTB BRANCH_CONDITIONAL	ACCESS:   11447585  HIT:   11447583  MISS:          2
BTB BRANCH_DIRECT_CALL	ACCESS:          0  HIT:          0  MISS:          0
BTB BRANCH_INDIRECT_CALL	ACCESS:          0  HIT:          0  MISS:          0
BTB BRANCH_RETURN	ACCESS:          0  HIT:          0  MISS:          0
BTB BRANCH_OTHER ACCESS:          0  HIT:          0  MISS:          0

L2C TOTAL     ACCESS:     271107  HIT:      91882  MISS:     179225  HIT %:    33.8914  MISS %:    66.1086   MPKI: 3.5845
L2C LOAD      ACCESS:       8151  HIT:          0  MISS:       8151  HIT %:          0  MISS %:        100   MPKI: 0.16302
L2C DATA LOAD MPKI: 0.16302
L2C INSTRUCTION LOAD MPKI: 0
L2C RFO       ACCESS:      89434  HIT:          0  MISS:      89434  HIT %:          0  MISS %:        100   MPKI: 1.78868
L2C PREFETCH  ACCESS:      81285  HIT:          0  MISS:      81285  HIT %:          0  MISS %:        100   MPKI: 1.6257
AGUS PREFETCH L1 MISS: 0
L2C DATA PREFETCH MPKI: 1.6257
L2C INSTRUCTION PREFETCH MPKI: 0
L2C WRITEBACK ACCESS:      89442  HIT:      89442  MISS:          0  HIT %:        100  MISS %:          0   MPKI: 0
L2C LOAD TRANSLATION ACCESS:       2795  HIT:       2440  MISS:        355  HIT %:    87.2987  MISS %:    12.7013   MPKI: 0.0071
L2C PREFETCH  REQUESTED:          0  ISSUED:          0  USEFUL:          0  USELESS:      81372
L2C USEFUL LOAD PREFETCHES:          0 PREFETCH ISSUED TO LOWER LEVEL:      81285  ACCURACY: 0
L2C TIMELY PREFETCHES:          0 LATE PREFETCHES: 0 DROPPED PREFETCHES: 0
L2C PREFETCHES SAME FILL-ORIGIN LEVEL: 0 DIFFERENT FILL-ORIGIN LEVEL: 0
L2C AVERAGE MISS LATENCY: 157.558 cycles
L2C RQ	ACCESS:     100380	FORWARD:          0	MERGED:          0	TO_CACHE:     100380
L2C WQ	ACCESS:      89442	FORWARD:          0	MERGED:          0	TO_CACHE:      89442
L2C PQ	ACCESS:      81285	FORWARD:          0	MERGED:          0	TO_CACHE:      81285

L2C Instructions Evicting Data 0
L2C Translations Evicting Data 355
L2C Data Evicting Data 178515
L2C Instructions Evicting Instructions 0
L2C Translations Evicting Instructions 0
L2C Data Evicting Instructions 0
L2C Instructions Evicting Translations 0
L2C Translations Evicting Translations 0
L2C Data Evicting Translations 355
L2C Dense regions hint from L2: 0
PSCL5 TOTAL     ACCESS:       2795  HIT:       2795  MISS:          0  HIT %:        100  MISS %:          0   MPKI: 0
PSCL5 LOAD TRANSLATION ACCESS:       2795  HIT:       2795  MISS:          0  HIT %:        100  MISS %:          0   MPKI: 0
PSCL5 PREFETCH  REQUESTED:          0  ISSUED:          0  USEFUL:          0  USELESS:          0
PSCL5 USEFUL LOAD PREFETCHES:          0 PREFETCH ISSUED TO LOWER LEVEL:          0  ACCURACY: -nan
PSCL5 TIMELY PREFETCHES:          0 LATE PREFETCHES: 0 DROPPED PREFETCHES: 0
PSCL5 PREFETCHES SAME FILL-ORIGIN LEVEL: 0 DIFFERENT FILL-ORIGIN LEVEL: 0

PSCL4 TOTAL     ACCESS:       2795  HIT:       2795  MISS:          0  HIT %:        100  MISS %:          0   MPKI: 0
PSCL4 LOAD TRANSLATION ACCESS:       2795  HIT:       2795  MISS:          0  HIT %:        100  MISS %:          0   MPKI: 0
PSCL4 PREFETCH  REQUESTED:          0  ISSUED:          0  USEFUL:          0  USELESS:          0
PSCL4 USEFUL LOAD PREFETCHES:          0 PREFETCH ISSUED TO LOWER LEVEL:          0  ACCURACY: -nan
PSCL4 TIMELY PREFETCHES:          0 LATE PREFETCHES: 0 DROPPED PREFETCHES: 0
PSCL4 PREFETCHES SAME FILL-ORIGIN LEVEL: 0 DIFFERENT FILL-ORIGIN LEVEL: 0

PSCL3 TOTAL     ACCESS:       2795  HIT:       2795  MISS:          0  HIT %:        100  MISS %:          0   MPKI: 0
PSCL3 LOAD TRANSLATION ACCESS:       2795  HIT:       2795  MISS:          0  HIT %:        100  MISS %:          0   MPKI: 0
PSCL3 PREFETCH  REQUESTED:          0  ISSUED:          0  USEFUL:          0  USELESS:          0
PSCL3 USEFUL LOAD PREFETCHES:          0 PREFETCH ISSUED TO LOWER LEVEL:          0  ACCURACY: -nan
PSCL3 TIMELY PREFETCHES:          0 LATE PREFETCHES: 0 DROPPED PREFETCHES: 0
PSCL3 PREFETCHES SAME FILL-ORIGIN LEVEL: 0 DIFFERENT FILL-ORIGIN LEVEL: 0

PSCL2 TOTAL     ACCESS:       2795  HIT:       2789  MISS:          6  HIT %:    99.7853  MISS %:   0.214669   MPKI: 0.00012
PSCL2 LOAD TRANSLATION ACCESS:       2795  HIT:       2789  MISS:          6  HIT %:    99.7853  MISS %:   0.214669   MPKI: 0.00012
PSCL2 PREFETCH  REQUESTED:          0  ISSUED:          0  USEFUL:          0  USELESS:          0
PSCL2 USEFUL LOAD PREFETCHES:          0 PREFETCH ISSUED TO LOWER LEVEL:          0  ACCURACY: -nan
PSCL2 TIMELY PREFETCHES:          0 LATE PREFETCHES: 0 DROPPED PREFETCHES: 0
PSCL2 PREFETCHES SAME FILL-ORIGIN LEVEL: 0 DIFFERENT FILL-ORIGIN LEVEL: 0

LLC TOTAL     ACCESS:     268699  HIT:      89474  MISS:     179225  HIT %:     33.299  MISS %:     66.701   MPKI: 3.5845
LLC LOAD      ACCESS:       8151  HIT:          0  MISS:       8151  HIT %:          0  MISS %:        100   MPKI: 0.16302
LLC RFO       ACCESS:      89434  HIT:          0  MISS:      89434  HIT %:          0  MISS %:        100   MPKI: 1.78868
LLC PREFETCH  ACCESS:      81285  HIT:          0  MISS:      81285  HIT %:          0  MISS %:        100   MPKI: 1.6257
AGUS PREFETCH L1 MISS: 0
LLC WRITEBACK ACCESS:      89474  HIT:      89474  MISS:          0  HIT %:        100  MISS %:          0   MPKI: 0
LLC LOAD TRANSLATION ACCESS:        355  HIT:          0  MISS:        355  HIT %:          0  MISS %:        100   MPKI: 0.0071
LLC PREFETCH  REQUESTED:          0  ISSUED:          0  USEFUL:          0  USELESS:      81556
LLC USEFUL LOAD PREFETCHES:          0 PREFETCH ISSUED TO LOWER LEVEL:      81285  ACCURACY: 0
LLC TIMELY PREFETCHES:          0 LATE PREFETCHES: 0 DROPPED PREFETCHES: 0
LLC PREFETCHES SAME FILL-ORIGIN LEVEL: 0 DIFFERENT FILL-ORIGIN LEVEL: 0
LLC AVERAGE MISS LATENCY: 127.541 cycles
LLC RQ	ACCESS:      97940	FORWARD:          0	MERGED:          0	TO_CACHE:      97940
LLC WQ	ACCESS:      89474	FORWARD:          0	MERGED:          0	TO_CACHE:      89474
LLC PQ	ACCESS:      81285	FORWARD:          0	MERGED:          0	TO_CACHE:      81285

LLC Dense regions hint to LLC: 0

RAW hits: 0
Loads Generated: 10690511
Loads sent to L1D: 10690511
Stores Generated: 5723795
Stores sent to L1D: 5723795
Major fault: 0 Minor fault: 5612
Allocated PAGES: 5612
CPU 0 L1D nextline prefetcher final stats
 Action = 30 : 146069
 Action = 23 : 81542
 Action = 16 : 75664
 Action = 11 : 74350
 Action = 10 : 73212
 Action = 22 : 82417
 Action = 5 : 73867
 Action = 4 : 74228
 Action = 32 : 218594
 Action = -3 : 77492
 Action = 12 : 86429
 Action = -6 : 7046624
 Action = 3 : 85074
 Action = 1 : 73689
 Action = -1 : 74806
 Action = 0 : 4095169
---------------Prefetch degree counts-----------------------
 prefetch degree = 5 : 2538
 number of times low bandwidth is  12275822
number of times high bandwidth is 0
33 : 3641696
70 : 32
98 : 32
15 : 32
1 : 398055232
27 : 32
78 : 1969280
68 : 5608992
111 : 32
37 : 362717856
74 : 1967968
43 : 3642240
80 : 1967904
84 : 5610528
72 : 3643072
76 : 3641760
82 : 3643776

DRAM Statistics
 CHANNEL 0
 RQ ROW_BUFFER_HIT:      94287  ROW_BUFFER_MISS:      84938
 DBUS_CONGESTED:         98
 WQ ROW_BUFFER_HIT:      13613  ROW_BUFFER_MISS:      75796  FULL:          0

 AVG_CONGESTED_CYCLE: 4
 All warmup complete: 2
Channel 0 Bank busy for read cycles: 0
Channel 0 Bank busy for write cycles: 0
Channel 0
Rank 0
0banks busy for read cycles: 70165754
0banks busy for write cycles: 63293
1banks busy for read cycles: 12012536
1banks busy for write cycles: 8974537
2banks busy for read cycles: 1158218
2banks busy for write cycles: 555040
3banks busy for read cycles: 471263
3banks busy for write cycles: 319994
4banks busy for read cycles: 200879
4banks busy for write cycles: 178220
5banks busy for read cycles: 116339
5banks busy for write cycles: 116938
6banks busy for read cycles: 39240
6banks busy for write cycles: 70260
7banks busy for read cycles: 11226
7banks busy for write cycles: 36301
8banks busy for read cycles: 1722
8banks busy for write cycles: 15403

CPU 0 Branch Prediction Accuracy: 93.3866% MPKI: 15.1416 Average ROB Occupancy at Mispredict: 12.9653
Branch types
NOT_BRANCH: 38552411 77.1048%
BRANCH_DIRECT_JUMP: 0 0%
BRANCH_INDIRECT: 0 0%
BRANCH_CONDITIONAL: 11447591 22.8952%
BRANCH_DIRECT_CALL: 0 0%
BRANCH_INDIRECT_CALL: 0 0%
BRANCH_RETURN: 0 0%
BRANCH_OTHER: 0 0%

DRAM PAGES: 1048576
Allocated PAGES: 5612
