
*** ChampSim Multicore Out-of-Order Simulator ***

Warmup Instructions: 50000000
Simulation Instructions: 50000000
Number of CPUs: 1
LLC sets: 2048
LLC ways: 16
Off-chip DRAM Size: 4096 MB Channels: 1 Width: 64-bit Data Rate: 6400 MT/s
CPU 0 runs ../PARSEC/parsec_2.1.blackscholes.simlarge.prebuilt.drop_1750M.length_250M.champsimtrace.xz
.xz
CPU 0 Bimodal branch predictor
BTB has LRU replacement policy
ITLB has LRU replacement policy
DTLB has LRU replacement policy
STLB has LRU replacement policy
L1I has LRU replacement policy
CPU 0 L1D - Pythia Preftecher 
L1D has LRU replacement policy
--------- This is L2C prefetcher --------------
L2C has LRU replacement policy
LLC has LRU replacement policy
Heartbeat CPU 0 instructions: 10000000 cycles: 3084391 heartbeat IPC: 3.24213 cumulative IPC: 3.24213 (Simulation time: 0 hr 0 min 20 sec) 
Heartbeat CPU 0 instructions: 20000000 cycles: 6168094 heartbeat IPC: 3.24285 cumulative IPC: 3.24249 (Simulation time: 0 hr 0 min 40 sec) 
Heartbeat CPU 0 instructions: 30000000 cycles: 9250983 heartbeat IPC: 3.24371 cumulative IPC: 3.2429 (Simulation time: 0 hr 1 min 0 sec) 
Heartbeat CPU 0 instructions: 40000001 cycles: 12334707 heartbeat IPC: 3.24283 cumulative IPC: 3.24288 (Simulation time: 0 hr 1 min 19 sec) 
Heartbeat CPU 0 instructions: 50000000 cycles: 15418232 heartbeat IPC: 3.24304 cumulative IPC: 3.24291 (Simulation time: 0 hr 1 min 39 sec) 

Warmup complete CPU 0 instructions: 50000004 cycles: 15418233 (Simulation time: 0 hr 1 min 39 sec) 

Heartbeat CPU 0 instructions: 60000000 cycles: 31295038 heartbeat IPC: 0.62985 cumulative IPC: 0.629849 (Simulation time: 0 hr 2 min 1 sec) 
Heartbeat CPU 0 instructions: 70000000 cycles: 47190566 heartbeat IPC: 0.629108 cumulative IPC: 0.629478 (Simulation time: 0 hr 2 min 24 sec) 
Heartbeat CPU 0 instructions: 80000001 cycles: 63078512 heartbeat IPC: 0.629408 cumulative IPC: 0.629455 (Simulation time: 0 hr 2 min 46 sec) 
Heartbeat CPU 0 instructions: 90000001 cycles: 78955141 heartbeat IPC: 0.629857 cumulative IPC: 0.629555 (Simulation time: 0 hr 3 min 9 sec) 
Heartbeat CPU 0 instructions: 100000001 cycles: 94849664 heartbeat IPC: 0.629148 cumulative IPC: 0.629474 (Simulation time: 0 hr 3 min 31 sec) 
Finished CPU 0 instructions: 50000001 cycles: 79431436 cumulative IPC: 0.629474 (Simulation time: 0 hr 3 min 31 sec) 

ChampSim completed all CPUs

Region of Interest Statistics

CPU 0 cumulative IPC: 0.629474 instructions: 50000001 cycles: 79431436
ITLB TOTAL     ACCESS:    7287489  HIT:    7287489  MISS:          0  HIT %:        100  MISS %:          0   MPKI: 0
ITLB LOAD TRANSLATION ACCESS:    7287489  HIT:    7287489  MISS:          0  HIT %:        100  MISS %:          0   MPKI: 0
ITLB PREFETCH  REQUESTED:          0  ISSUED:          0  USEFUL:          0  USELESS:          0
ITLB USEFUL LOAD PREFETCHES:          0 PREFETCH ISSUED TO LOWER LEVEL:          0  ACCURACY: -nan
ITLB TIMELY PREFETCHES:          0 LATE PREFETCHES: 0 DROPPED PREFETCHES: 0
ITLB PREFETCHES SAME FILL-ORIGIN LEVEL: 0 DIFFERENT FILL-ORIGIN LEVEL: 0
ITLB AVERAGE MISS LATENCY: -nan cycles
ITLB RQ	ACCESS:    8776396	FORWARD:          0	MERGED:    1488908	TO_CACHE:    7287488

DTLB TOTAL     ACCESS:    9071300  HIT:    8861579  MISS:     209721  HIT %:    97.6881  MISS %:    2.31192   MPKI: 4.19442
DTLB LOAD TRANSLATION ACCESS:    9071300  HIT:    8861579  MISS:     209721  HIT %:    97.6881  MISS %:    2.31192   MPKI: 4.19442
DTLB PREFETCH  REQUESTED:          0  ISSUED:          0  USEFUL:          0  USELESS:          0
DTLB USEFUL LOAD PREFETCHES:          0 PREFETCH ISSUED TO LOWER LEVEL:          0  ACCURACY: -nan
DTLB TIMELY PREFETCHES:          0 LATE PREFETCHES: 0 DROPPED PREFETCHES: 0
DTLB PREFETCHES SAME FILL-ORIGIN LEVEL: 0 DIFFERENT FILL-ORIGIN LEVEL: 0
DTLB AVERAGE MISS LATENCY: 9.13896 cycles
DTLB RQ	ACCESS:   11350675	FORWARD:          0	MERGED:    2272797	TO_CACHE:    9077878

STLB TOTAL     ACCESS:    2304929  HIT:    2304929  MISS:          0  HIT %:        100  MISS %:          0   MPKI: 0
STLB LOAD TRANSLATION ACCESS:     209721  HIT:     209721  MISS:          0  HIT %:        100  MISS %:          0   MPKI: 0
STLB TRANSLATION FROM L1D PREFETCHER ACCESS:    2095208  HIT:    2095208  MISS:          0  HIT %:        100  MISS %:          0   MPKI: 0
STLB PREFETCH  REQUESTED:          0  ISSUED:          0  USEFUL:          0  USELESS:          0
STLB USEFUL LOAD PREFETCHES:          0 PREFETCH ISSUED TO LOWER LEVEL:          0  ACCURACY: -nan
STLB TIMELY PREFETCHES:          0 LATE PREFETCHES: 0 DROPPED PREFETCHES: 0
STLB PREFETCHES SAME FILL-ORIGIN LEVEL: 0 DIFFERENT FILL-ORIGIN LEVEL: 0
STLB AVERAGE MISS LATENCY: -nan cycles
STLB RQ	ACCESS:    7040123	FORWARD:          0	MERGED:    4735194	TO_CACHE:    2304929

STLB Hit, L1D data hit: 0
STLB Hit, L2C data hit: 0
STLB Hit, LLC data hit: 0
STLB Hit, LLC data miss: 0
STLB STLB hints to L2: 0
L1D TOTAL     ACCESS:   18180997  HIT:   17741695  MISS:     439302  HIT %:    97.5837  MISS %:    2.41627   MPKI: 8.78604
L1D LOAD      ACCESS:    7374290  HIT:    7343929  MISS:      30361  HIT %:    99.5883  MISS %:   0.411714   MPKI: 0.60722
L1D RFO       ACCESS:    3976325  HIT:    3971467  MISS:       4858  HIT %:    99.8778  MISS %:   0.122173   MPKI: 0.09716
L1D PREFETCH  ACCESS:    6830382  HIT:    6426299  MISS:     404083  HIT %:     94.084  MISS %:    5.91596   MPKI: 8.08166
AGUS PREFETCH L1 MISS: 0
L1D PREFETCH  REQUESTED:   13714888  ISSUED:   13687020  USEFUL:      47630  USELESS:     356426
L1D USEFUL LOAD PREFETCHES:      47630 PREFETCH ISSUED TO LOWER LEVEL:     404083  ACCURACY: 11.7872
L1D TIMELY PREFETCHES:      47630 LATE PREFETCHES: 0 DROPPED PREFETCHES: 0
L1D PREFETCHES SAME FILL-ORIGIN LEVEL: 404083 DIFFERENT FILL-ORIGIN LEVEL: 0
L1D AVERAGE MISS LATENCY: 17.6436 cycles
L1D RQ	ACCESS:    9904002	FORWARD:          0	MERGED:    2446133	TO_CACHE:    7374354
L1D WQ	ACCESS:    3986107	FORWARD:      83515	MERGED:       9786	TO_CACHE:    3976321
L1D PQ	ACCESS:    6856618	FORWARD:          0	MERGED:      26216	TO_CACHE:    6830402

L1D UNIQUE REGIONS ACCESSED: 0
L1D REGIONS CONFLICTS: 0
L1D Cross Page Prefetch Requests: 0
L1D Same Page Prefetch Requests: 14429517
L1D ROI Sum of L1D PQ occupancy: 94059077
L1D PREFETCHES PUSHED FROM L2C: 0
L1I TOTAL     ACCESS:    8776396  HIT:    8776396  MISS:          0  HIT %:        100  MISS %:          0   MPKI: 0
L1I LOAD      ACCESS:    8776396  HIT:    8776396  MISS:          0  HIT %:        100  MISS %:          0   MPKI: 0
L1I PREFETCH  REQUESTED:          0  ISSUED:          0  USEFUL:          0  USELESS:          0
L1I USEFUL LOAD PREFETCHES:          0 PREFETCH ISSUED TO LOWER LEVEL:          0  ACCURACY: -nan
L1I TIMELY PREFETCHES:          0 LATE PREFETCHES: 0 DROPPED PREFETCHES: 0
L1I PREFETCHES SAME FILL-ORIGIN LEVEL: 0 DIFFERENT FILL-ORIGIN LEVEL: 0
L1I AVERAGE MISS LATENCY: -nan cycles
L1I RQ	ACCESS:   12808906	FORWARD:          0	MERGED:    4032510	TO_CACHE:    8776396

BTB TOTAL     ACCESS:    2652237  HIT:    2343239  MISS:     308998  HIT %:    88.3495  MISS %:    11.6505   MPKI: 6.17996
BTB BRANCH_DIRECT_JUMP	ACCESS:     644516  HIT:     644511  MISS:          5
BTB BRANCH_INDIRECT	ACCESS:          0  HIT:          0  MISS:          0
BTB BRANCH_CONDITIONAL	ACCESS:     764352  HIT:     764340  MISS:         12
BTB BRANCH_DIRECT_CALL	ACCESS:     621684  HIT:     621675  MISS:          9
BTB BRANCH_INDIRECT_CALL	ACCESS:          0  HIT:          0  MISS:          0
BTB BRANCH_RETURN	ACCESS:     621685  HIT:     312713  MISS:     308972
BTB BRANCH_OTHER ACCESS:          0  HIT:          0  MISS:          0

L2C TOTAL     ACCESS:     444159  HIT:     409918  MISS:      34241  HIT %:    92.2908  MISS %:    7.70918   MPKI: 0.68482
L2C LOAD      ACCESS:      30361  HIT:      29170  MISS:       1191  HIT %:    96.0772  MISS %:     3.9228   MPKI: 0.02382
L2C DATA LOAD MPKI: 0.02382
L2C INSTRUCTION LOAD MPKI: 0
L2C RFO       ACCESS:       4858  HIT:          0  MISS:       4858  HIT %:          0  MISS %:        100   MPKI: 0.09716
L2C PREFETCH  ACCESS:     404083  HIT:     375891  MISS:      28192  HIT %:    93.0232  MISS %:    6.97678   MPKI: 0.56384
AGUS PREFETCH L1 MISS: 0
L2C DATA PREFETCH MPKI: 0.56384
L2C INSTRUCTION PREFETCH MPKI: 0
L2C WRITEBACK ACCESS:       4857  HIT:       4857  MISS:          0  HIT %:        100  MISS %:          0   MPKI: 0
L2C PREFETCH  REQUESTED:          0  ISSUED:          0  USEFUL:       9060  USELESS:      18336
L2C USEFUL LOAD PREFETCHES:       9060 PREFETCH ISSUED TO LOWER LEVEL:      28192  ACCURACY: 32.1368
L2C TIMELY PREFETCHES:       9060 LATE PREFETCHES: 0 DROPPED PREFETCHES: 0
L2C PREFETCHES SAME FILL-ORIGIN LEVEL: 0 DIFFERENT FILL-ORIGIN LEVEL: 0
L2C AVERAGE MISS LATENCY: 30.0843 cycles
L2C RQ	ACCESS:      35219	FORWARD:          0	MERGED:          0	TO_CACHE:      35219
L2C WQ	ACCESS:       4857	FORWARD:          0	MERGED:          0	TO_CACHE:       4857
L2C PQ	ACCESS:     404083	FORWARD:          0	MERGED:          0	TO_CACHE:     404083

L2C Instructions Evicting Data 0
L2C Translations Evicting Data 0
L2C Data Evicting Data 34233
L2C Instructions Evicting Instructions 0
L2C Translations Evicting Instructions 0
L2C Data Evicting Instructions 0
L2C Instructions Evicting Translations 0
L2C Translations Evicting Translations 0
L2C Data Evicting Translations 8
L2C Dense regions hint from L2: 0
PSCL5 PREFETCH  REQUESTED:          0  ISSUED:          0  USEFUL:          0  USELESS:          0
PSCL5 USEFUL LOAD PREFETCHES:          0 PREFETCH ISSUED TO LOWER LEVEL:          0  ACCURACY: -nan
PSCL5 TIMELY PREFETCHES:          0 LATE PREFETCHES: 0 DROPPED PREFETCHES: 0
PSCL5 PREFETCHES SAME FILL-ORIGIN LEVEL: 0 DIFFERENT FILL-ORIGIN LEVEL: 0

PSCL4 PREFETCH  REQUESTED:          0  ISSUED:          0  USEFUL:          0  USELESS:          0
PSCL4 USEFUL LOAD PREFETCHES:          0 PREFETCH ISSUED TO LOWER LEVEL:          0  ACCURACY: -nan
PSCL4 TIMELY PREFETCHES:          0 LATE PREFETCHES: 0 DROPPED PREFETCHES: 0
PSCL4 PREFETCHES SAME FILL-ORIGIN LEVEL: 0 DIFFERENT FILL-ORIGIN LEVEL: 0

PSCL3 PREFETCH  REQUESTED:          0  ISSUED:          0  USEFUL:          0  USELESS:          0
PSCL3 USEFUL LOAD PREFETCHES:          0 PREFETCH ISSUED TO LOWER LEVEL:          0  ACCURACY: -nan
PSCL3 TIMELY PREFETCHES:          0 LATE PREFETCHES: 0 DROPPED PREFETCHES: 0
PSCL3 PREFETCHES SAME FILL-ORIGIN LEVEL: 0 DIFFERENT FILL-ORIGIN LEVEL: 0

PSCL2 PREFETCH  REQUESTED:          0  ISSUED:          0  USEFUL:          0  USELESS:          0
PSCL2 USEFUL LOAD PREFETCHES:          0 PREFETCH ISSUED TO LOWER LEVEL:          0  ACCURACY: -nan
PSCL2 TIMELY PREFETCHES:          0 LATE PREFETCHES: 0 DROPPED PREFETCHES: 0
PSCL2 PREFETCHES SAME FILL-ORIGIN LEVEL: 0 DIFFERENT FILL-ORIGIN LEVEL: 0

LLC TOTAL     ACCESS:      39158  HIT:      39131  MISS:         27  HIT %:     99.931  MISS %:  0.0689514   MPKI: 0.00054
LLC LOAD      ACCESS:       1191  HIT:       1191  MISS:          0  HIT %:        100  MISS %:          0   MPKI: 0
LLC RFO       ACCESS:       4858  HIT:       4858  MISS:          0  HIT %:        100  MISS %:          0   MPKI: 0
LLC PREFETCH  ACCESS:      28192  HIT:      28165  MISS:         27  HIT %:    99.9042  MISS %:  0.0957719   MPKI: 0.00054
AGUS PREFETCH L1 MISS: 0
LLC WRITEBACK ACCESS:       4917  HIT:       4917  MISS:          0  HIT %:        100  MISS %:          0   MPKI: 0
LLC PREFETCH  REQUESTED:          0  ISSUED:          0  USEFUL:        320  USELESS:          0
LLC USEFUL LOAD PREFETCHES:        320 PREFETCH ISSUED TO LOWER LEVEL:         27  ACCURACY: 1185.19
LLC TIMELY PREFETCHES:        320 LATE PREFETCHES: 0 DROPPED PREFETCHES: 0
LLC PREFETCHES SAME FILL-ORIGIN LEVEL: 0 DIFFERENT FILL-ORIGIN LEVEL: 0
LLC AVERAGE MISS LATENCY: 106.963 cycles
LLC RQ	ACCESS:       6049	FORWARD:          0	MERGED:          0	TO_CACHE:       6049
LLC WQ	ACCESS:       4917	FORWARD:          0	MERGED:          0	TO_CACHE:       4917
LLC PQ	ACCESS:      28192	FORWARD:          0	MERGED:          0	TO_CACHE:      28192

LLC Dense regions hint to LLC: 0

RAW hits: 498128
Loads Generated: 10402132
Loads sent to L1D: 9904002
Stores Generated: 3986094
Stores sent to L1D: 3986107
Major fault: 0 Minor fault: 486
Allocated PAGES: 486
CPU 0 L1D nextline prefetcher final stats
 Action = 30 : 651232
 Action = 23 : 563301
 Action = 16 : 539892
 Action = 11 : 519129
 Action = 10 : 518269
 Action = 22 : 560807
 Action = 5 : 344124
 Action = 32 : 663736
 Action = -3 : 384603
 Action = 12 : 523998
 Action = -6 : 415561
 Action = 3 : 292946
 Action = 0 : 7199110
 Action = -1 : 323850
 Action = 1 : 291415
 Action = 4 : 312217
---------------Prefetch degree counts-----------------------
 prefetch degree = 5 : 2878
 number of times low bandwidth is  12300302
number of times high bandwidth is 0
7 : 2153280
59 : 3029472
30 : 3999520
90 : 2351520
87 : 3349088
49 : 3471904
0 : 1350624
22 : 3822528
3 : 3334560
124 : 2573024
75 : 4452480
45 : 3561120
88 : 2616768
12 : 3737568
42 : 3295872
14 : 2595744
56 : 3178112
26 : 2421408
79 : 2332224
105 : 5837664
92 : 4065696
11 : 3572928
101 : 2927680
121 : 5253568
107 : 2594560
35 : 2627360
112 : 2220352
23 : 2429280
98 : 3425632
96 : 3436768
66 : 4172672
41 : 3136992
118 : 3495712
33 : 3273312
47 : 3275040
99 : 5425504
62 : 2469984
37 : 2441376
125 : 3216128
123 : 2916704
68 : 3705696
116 : 3764544
91 : 3085728
43 : 3959296
110 : 5132480
57 : 3324160
84 : 4391712
54 : 4296288
2 : 2509760
19 : 2585920
114 : 2370144
40 : 3467520
119 : 5188832
85 : 3452128
6 : 4213280
34 : 2390976
113 : 4592544
81 : 3641408
15 : 2255712
94 : 3998592
126 : 2686592
52 : 3816896
50 : 6614528
10 : 2219872
89 : 3451872
27 : 4758368
106 : 2424512
20 : 2738720
5 : 3263968
70 : 4693696
1 : 457699744
80 : 2697696
78 : 4384352
115 : 5389856
36 : 5246912
103 : 2714144
24 : 1747168
29 : 3831296
108 : 5864288
73 : 2200160
51 : 3153984
55 : 2840864
69 : 3422848
63 : 3128448
100 : 3931584
21 : 2486944
65 : 2803232
102 : 2805888
28 : 3403680
104 : 3765280
25 : 3498848
67 : 2388256
82 : 2651584
8 : 2214016
9 : 2745088
72 : 4730784
64 : 4104064
71 : 2912416
32 : 4687456
111 : 3429600
97 : 6441248
18 : 2723968
117 : 2568448
38 : 3096032
74 : 3256608
53 : 5120416
31 : 2988096
44 : 3577728
39 : 4312800
61 : 5390336
77 : 1933536
58 : 2903680
60 : 3897888
48 : 4295968
127 : 4717664
120 : 3650592
95 : 2572608
16 : 2806592
122 : 3722880
93 : 3413760
83 : 5134464
4 : 3224576
86 : 4430304
76 : 4989152
46 : 3701856
17 : 4314784
13 : 2427008
109 : 5337216

DRAM Statistics
 CHANNEL 0
 RQ ROW_BUFFER_HIT:         19  ROW_BUFFER_MISS:          8
 DBUS_CONGESTED:          0
 WQ ROW_BUFFER_HIT:          0  ROW_BUFFER_MISS:          0  FULL:          0

 AVG_CONGESTED_CYCLE: -
 All warmup complete: 2
Channel 0 Bank busy for read cycles: 0
Channel 0 Bank busy for write cycles: 0
Channel 0
Rank 0
0banks busy for read cycles: 79429780
0banks busy for write cycles: 0
1banks busy for read cycles: 1213
1banks busy for write cycles: 0
2banks busy for read cycles: 395
2banks busy for write cycles: 0
3banks busy for read cycles: 49
3banks busy for write cycles: 0
4banks busy for read cycles: 0
4banks busy for write cycles: 0
5banks busy for read cycles: 0
5banks busy for write cycles: 0
6banks busy for read cycles: 0
6banks busy for write cycles: 0
7banks busy for read cycles: 0
7banks busy for write cycles: 0
8banks busy for read cycles: 0
8banks busy for write cycles: 0

CPU 0 Branch Prediction Accuracy: 97.269% MPKI: 2.6794 Average ROB Occupancy at Mispredict: 25.7165
Branch types
NOT_BRANCH: 45094107 90.1882%
BRANCH_DIRECT_JUMP: 644516 1.28903%
BRANCH_INDIRECT: 0 0%
BRANCH_CONDITIONAL: 3017662 6.03532%
BRANCH_DIRECT_CALL: 621684 1.24337%
BRANCH_INDIRECT_CALL: 0 0%
BRANCH_RETURN: 621685 1.24337%
BRANCH_OTHER: 0 0%

DRAM PAGES: 1048576
Allocated PAGES: 486
