
*** ChampSim Multicore Out-of-Order Simulator ***

Warmup Instructions: 50000000
Simulation Instructions: 50000000
Number of CPUs: 1
LLC sets: 2048
LLC ways: 16
Off-chip DRAM Size: 4096 MB Channels: 1 Width: 64-bit Data Rate: 6400 MT/s
CPU 0 runs ../Ligra/ligra_BC.com-lj.ungraph.gcc_6.3.0_O3.drop_26750M.length_250M.champsimtrace.xz
.xz
CPU 0 Bimodal branch predictor
BTB has LRU replacement policy
ITLB has LRU replacement policy
DTLB has LRU replacement policy
STLB has LRU replacement policy
L1I has LRU replacement policy
CPU 0 L1D - Pythia Preftecher 
L1D has LRU replacement policy
--------- This is L2C prefetcher --------------
L2C has LRU replacement policy
LLC has LRU replacement policy
Heartbeat CPU 0 instructions: 10000003 cycles: 3333411 heartbeat IPC: 2.99993 cumulative IPC: 2.99993 (Simulation time: 0 hr 0 min 10 sec) 
Heartbeat CPU 0 instructions: 20000000 cycles: 6666742 heartbeat IPC: 3 cumulative IPC: 2.99997 (Simulation time: 0 hr 0 min 20 sec) 
Heartbeat CPU 0 instructions: 30000003 cycles: 9999731 heartbeat IPC: 3.00031 cumulative IPC: 3.00008 (Simulation time: 0 hr 0 min 30 sec) 
Heartbeat CPU 0 instructions: 40000003 cycles: 13331763 heartbeat IPC: 3.00117 cumulative IPC: 3.00035 (Simulation time: 0 hr 0 min 40 sec) 
Heartbeat CPU 0 instructions: 50000000 cycles: 16663999 heartbeat IPC: 3.00099 cumulative IPC: 3.00048 (Simulation time: 0 hr 0 min 49 sec) 

Warmup complete CPU 0 instructions: 50000003 cycles: 16664000 (Simulation time: 0 hr 0 min 49 sec) 

Heartbeat CPU 0 instructions: 60000000 cycles: 43110899 heartbeat IPC: 0.378116 cumulative IPC: 0.378116 (Simulation time: 0 hr 1 min 5 sec) 
Heartbeat CPU 0 instructions: 70000000 cycles: 68947880 heartbeat IPC: 0.387042 cumulative IPC: 0.382527 (Simulation time: 0 hr 1 min 20 sec) 
Heartbeat CPU 0 instructions: 80000000 cycles: 92737897 heartbeat IPC: 0.420344 cumulative IPC: 0.394353 (Simulation time: 0 hr 1 min 38 sec) 
Heartbeat CPU 0 instructions: 90000002 cycles: 113443943 heartbeat IPC: 0.482951 cumulative IPC: 0.413309 (Simulation time: 0 hr 2 min 8 sec) 
Heartbeat CPU 0 instructions: 100000001 cycles: 133394180 heartbeat IPC: 0.501247 cumulative IPC: 0.428338 (Simulation time: 0 hr 2 min 37 sec) 
Finished CPU 0 instructions: 50000002 cycles: 116730181 cumulative IPC: 0.428338 (Simulation time: 0 hr 2 min 37 sec) 

ChampSim completed all CPUs

Region of Interest Statistics

CPU 0 cumulative IPC: 0.428338 instructions: 50000002 cycles: 116730181
ITLB TOTAL     ACCESS:    7823247  HIT:    7823246  MISS:          1  HIT %:        100  MISS %: 1.27824e-05   MPKI: 2e-05
ITLB LOAD TRANSLATION ACCESS:    7823247  HIT:    7823246  MISS:          1  HIT %:        100  MISS %: 1.27824e-05   MPKI: 2e-05
ITLB PREFETCH  REQUESTED:          0  ISSUED:          0  USEFUL:          0  USELESS:          0
ITLB USEFUL LOAD PREFETCHES:          0 PREFETCH ISSUED TO LOWER LEVEL:          0  ACCURACY: -nan
ITLB TIMELY PREFETCHES:          0 LATE PREFETCHES: 0 DROPPED PREFETCHES: 0
ITLB PREFETCHES SAME FILL-ORIGIN LEVEL: 0 DIFFERENT FILL-ORIGIN LEVEL: 0
ITLB AVERAGE MISS LATENCY: 320 cycles
ITLB RQ	ACCESS:    7823267	FORWARD:          0	MERGED:         21	TO_CACHE:    7823246

DTLB TOTAL     ACCESS:    9181493  HIT:    9154469  MISS:      27024  HIT %:    99.7057  MISS %:   0.294331   MPKI: 0.54048
DTLB LOAD TRANSLATION ACCESS:    9181493  HIT:    9154469  MISS:      27024  HIT %:    99.7057  MISS %:   0.294331   MPKI: 0.54048
DTLB PREFETCH  REQUESTED:          0  ISSUED:          0  USEFUL:          0  USELESS:          0
DTLB USEFUL LOAD PREFETCHES:          0 PREFETCH ISSUED TO LOWER LEVEL:          0  ACCURACY: -nan
DTLB TIMELY PREFETCHES:          0 LATE PREFETCHES: 0 DROPPED PREFETCHES: 0
DTLB PREFETCHES SAME FILL-ORIGIN LEVEL: 0 DIFFERENT FILL-ORIGIN LEVEL: 0
DTLB AVERAGE MISS LATENCY: 159.904 cycles
DTLB RQ	ACCESS:   12930704	FORWARD:          0	MERGED:    3692596	TO_CACHE:    9238108

STLB TOTAL     ACCESS:    2776923  HIT:    2750080  MISS:      26843  HIT %:    99.0334  MISS %:   0.966645   MPKI: 0.53686
STLB LOAD TRANSLATION ACCESS:      27025  HIT:        182  MISS:      26843  HIT %:   0.673451  MISS %:    99.3265   MPKI: 0.53686
STLB TRANSLATION FROM L1D PREFETCHER ACCESS:    2749898  HIT:    2749898  MISS:          0  HIT %:        100  MISS %:          0   MPKI: 0
STLB PREFETCH  REQUESTED:          0  ISSUED:          0  USEFUL:          0  USELESS:          0
STLB USEFUL LOAD PREFETCHES:          0 PREFETCH ISSUED TO LOWER LEVEL:          0  ACCURACY: -nan
STLB TIMELY PREFETCHES:          0 LATE PREFETCHES: 0 DROPPED PREFETCHES: 0
STLB PREFETCHES SAME FILL-ORIGIN LEVEL: 0 DIFFERENT FILL-ORIGIN LEVEL: 0
STLB AVERAGE MISS LATENCY: 151.425 cycles
STLB RQ	ACCESS:   11293048	FORWARD:          0	MERGED:    8516125	TO_CACHE:    2776923

STLB Hit, L1D data hit: 0
STLB Hit, L2C data hit: 0
STLB Hit, LLC data hit: 0
STLB Hit, LLC data miss: 0
STLB STLB hints to L2: 0
L1D TOTAL     ACCESS:   16421899  HIT:   14746308  MISS:    1675591  HIT %:    89.7966  MISS %:    10.2034   MPKI: 33.5118
L1D LOAD      ACCESS:    4464049  HIT:    4043766  MISS:     420283  HIT %:    90.5852  MISS %:    9.41484   MPKI: 8.40566
L1D RFO       ACCESS:    2452464  HIT:    1767275  MISS:     685189  HIT %:    72.0612  MISS %:    27.9388   MPKI: 13.7038
L1D PREFETCH  ACCESS:    9505386  HIT:    8935267  MISS:     570119  HIT %:    94.0021  MISS %:    5.99785   MPKI: 11.4024
AGUS PREFETCH L1 MISS: 0
L1D PREFETCH  REQUESTED:   26226849  ISSUED:   26131177  USEFUL:     450134  USELESS:     119852
L1D USEFUL LOAD PREFETCHES:     450134 PREFETCH ISSUED TO LOWER LEVEL:     826346  ACCURACY: 54.4728
L1D TIMELY PREFETCHES:     450134 LATE PREFETCHES: 256224 DROPPED PREFETCHES: 0
L1D PREFETCHES SAME FILL-ORIGIN LEVEL: 826346 DIFFERENT FILL-ORIGIN LEVEL: 0
L1D AVERAGE MISS LATENCY: 291.75 cycles
L1D RQ	ACCESS:   10366956	FORWARD:          0	MERGED:    5746839	TO_CACHE:    4620117
L1D WQ	ACCESS:    8310588	FORWARD:          0	MERGED:          1	TO_CACHE:    8310587
L1D PQ	ACCESS:   14865154	FORWARD:          0	MERGED:    3599131	TO_CACHE:   11266023

L1D UNIQUE REGIONS ACCESSED: 0
L1D REGIONS CONFLICTS: 0
L1D Cross Page Prefetch Requests: 0
L1D Same Page Prefetch Requests: 28490163
L1D ROI Sum of L1D PQ occupancy: 203857300
L1D PREFETCHES PUSHED FROM L2C: 0
L1I TOTAL     ACCESS:    7823266  HIT:    7823251  MISS:         15  HIT %:    99.9998  MISS %: 0.000191736   MPKI: 0.0003
L1I LOAD      ACCESS:    7823266  HIT:    7823251  MISS:         15  HIT %:    99.9998  MISS %: 0.000191736   MPKI: 0.0003
L1I PREFETCH  REQUESTED:          0  ISSUED:          0  USEFUL:          0  USELESS:          0
L1I USEFUL LOAD PREFETCHES:          0 PREFETCH ISSUED TO LOWER LEVEL:          0  ACCURACY: -nan
L1I TIMELY PREFETCHES:          0 LATE PREFETCHES: 0 DROPPED PREFETCHES: 0
L1I PREFETCHES SAME FILL-ORIGIN LEVEL: 0 DIFFERENT FILL-ORIGIN LEVEL: 0
L1I AVERAGE MISS LATENCY: 212.533 cycles
L1I RQ	ACCESS:   14250491	FORWARD:          0	MERGED:    6427224	TO_CACHE:    7823267

BTB TOTAL     ACCESS:    8792346  HIT:    8792264  MISS:         82  HIT %:    99.9991  MISS %: 0.000932629   MPKI: 0.00164
BTB BRANCH_DIRECT_JUMP	ACCESS:         44  HIT:         24  MISS:         20
BTB BRANCH_INDIRECT	ACCESS:          0  HIT:          0  MISS:          0
BTB BRANCH_CONDITIONAL	ACCESS:    8792288  HIT:    8792238  MISS:         50
BTB BRANCH_DIRECT_CALL	ACCESS:          6  HIT:          1  MISS:          5
BTB BRANCH_INDIRECT_CALL	ACCESS:          0  HIT:          0  MISS:          0
BTB BRANCH_RETURN	ACCESS:          8  HIT:          1  MISS:          7
BTB BRANCH_OTHER ACCESS:          0  HIT:          0  MISS:          0

L2C TOTAL     ACCESS:    2387903  HIT:     710554  MISS:    1677349  HIT %:    29.7564  MISS %:    70.2436   MPKI: 33.547
L2C LOAD      ACCESS:     164074  HIT:        108  MISS:     163966  HIT %:   0.065824  MISS %:    99.9342   MPKI: 3.27932
L2C DATA LOAD MPKI: 3.27902
L2C INSTRUCTION LOAD MPKI: 0.0003
L2C RFO       ACCESS:     685189  HIT:          7  MISS:     685182  HIT %: 0.00102162  MISS %:     99.999   MPKI: 13.7036
L2C PREFETCH  ACCESS:     826344  HIT:       1579  MISS:     824765  HIT %:   0.191083  MISS %:    99.8089   MPKI: 16.4953
AGUS PREFETCH L1 MISS: 0
L2C DATA PREFETCH MPKI: 16.4953
L2C INSTRUCTION PREFETCH MPKI: 0
L2C WRITEBACK ACCESS:     685450  HIT:     685448  MISS:          2  HIT %:    99.9997  MISS %: 0.000291779   MPKI: 4e-05
L2C LOAD TRANSLATION ACCESS:      26846  HIT:      23412  MISS:       3434  HIT %:    87.2085  MISS %:    12.7915   MPKI: 0.06868
L2C PREFETCH  REQUESTED:          0  ISSUED:          0  USEFUL:        115  USELESS:     822071
L2C USEFUL LOAD PREFETCHES:        115 PREFETCH ISSUED TO LOWER LEVEL:     824767  ACCURACY: 0.0139433
L2C TIMELY PREFETCHES:        115 LATE PREFETCHES: 0 DROPPED PREFETCHES: 0
L2C PREFETCHES SAME FILL-ORIGIN LEVEL: 0 DIFFERENT FILL-ORIGIN LEVEL: 0
L2C AVERAGE MISS LATENCY: 276.035 cycles
L2C RQ	ACCESS:     876109	FORWARD:          0	MERGED:          0	TO_CACHE:     876109
L2C WQ	ACCESS:     685450	FORWARD:          0	MERGED:          0	TO_CACHE:     685450
L2C PQ	ACCESS:     826346	FORWARD:          0	MERGED:          0	TO_CACHE:     826346

L2C Instructions Evicting Data 15
L2C Translations Evicting Data 3431
L2C Data Evicting Data 1670463
L2C Instructions Evicting Instructions 0
L2C Translations Evicting Instructions 0
L2C Data Evicting Instructions 15
L2C Instructions Evicting Translations 0
L2C Translations Evicting Translations 3
L2C Data Evicting Translations 3420
L2C Dense regions hint from L2: 0
PSCL5 TOTAL     ACCESS:      26843  HIT:      26843  MISS:          0  HIT %:        100  MISS %:          0   MPKI: 0
PSCL5 LOAD TRANSLATION ACCESS:      26843  HIT:      26843  MISS:          0  HIT %:        100  MISS %:          0   MPKI: 0
PSCL5 PREFETCH  REQUESTED:          0  ISSUED:          0  USEFUL:          0  USELESS:          0
PSCL5 USEFUL LOAD PREFETCHES:          0 PREFETCH ISSUED TO LOWER LEVEL:          0  ACCURACY: -nan
PSCL5 TIMELY PREFETCHES:          0 LATE PREFETCHES: 0 DROPPED PREFETCHES: 0
PSCL5 PREFETCHES SAME FILL-ORIGIN LEVEL: 0 DIFFERENT FILL-ORIGIN LEVEL: 0

PSCL4 TOTAL     ACCESS:      26843  HIT:      26843  MISS:          0  HIT %:        100  MISS %:          0   MPKI: 0
PSCL4 LOAD TRANSLATION ACCESS:      26843  HIT:      26843  MISS:          0  HIT %:        100  MISS %:          0   MPKI: 0
PSCL4 PREFETCH  REQUESTED:          0  ISSUED:          0  USEFUL:          0  USELESS:          0
PSCL4 USEFUL LOAD PREFETCHES:          0 PREFETCH ISSUED TO LOWER LEVEL:          0  ACCURACY: -nan
PSCL4 TIMELY PREFETCHES:          0 LATE PREFETCHES: 0 DROPPED PREFETCHES: 0
PSCL4 PREFETCHES SAME FILL-ORIGIN LEVEL: 0 DIFFERENT FILL-ORIGIN LEVEL: 0

PSCL3 TOTAL     ACCESS:      26843  HIT:      26843  MISS:          0  HIT %:        100  MISS %:          0   MPKI: 0
PSCL3 LOAD TRANSLATION ACCESS:      26843  HIT:      26843  MISS:          0  HIT %:        100  MISS %:          0   MPKI: 0
PSCL3 PREFETCH  REQUESTED:          0  ISSUED:          0  USEFUL:          0  USELESS:          0
PSCL3 USEFUL LOAD PREFETCHES:          0 PREFETCH ISSUED TO LOWER LEVEL:          0  ACCURACY: -nan
PSCL3 TIMELY PREFETCHES:          0 LATE PREFETCHES: 0 DROPPED PREFETCHES: 0
PSCL3 PREFETCHES SAME FILL-ORIGIN LEVEL: 0 DIFFERENT FILL-ORIGIN LEVEL: 0

PSCL2 TOTAL     ACCESS:      26843  HIT:      26790  MISS:         53  HIT %:    99.8026  MISS %:   0.197444   MPKI: 0.00106
PSCL2 LOAD TRANSLATION ACCESS:      26843  HIT:      26790  MISS:         53  HIT %:    99.8026  MISS %:   0.197444   MPKI: 0.00106
PSCL2 PREFETCH  REQUESTED:          0  ISSUED:          0  USEFUL:          0  USELESS:          0
PSCL2 USEFUL LOAD PREFETCHES:          0 PREFETCH ISSUED TO LOWER LEVEL:          0  ACCURACY: -nan
PSCL2 TIMELY PREFETCHES:          0 LATE PREFETCHES: 0 DROPPED PREFETCHES: 0
PSCL2 PREFETCHES SAME FILL-ORIGIN LEVEL: 0 DIFFERENT FILL-ORIGIN LEVEL: 0

LLC TOTAL     ACCESS:    2365648  HIT:     688435  MISS:    1677213  HIT %:    29.1013  MISS %:    70.8987   MPKI: 33.5443
LLC LOAD      ACCESS:     163966  HIT:         10  MISS:     163956  HIT %: 0.00609883  MISS %:    99.9939   MPKI: 3.27912
LLC RFO       ACCESS:     685182  HIT:          1  MISS:     685181  HIT %: 0.000145947  MISS %:    99.9999   MPKI: 13.7036
LLC PREFETCH  ACCESS:     824765  HIT:        129  MISS:     824636  HIT %:  0.0156408  MISS %:    99.9844   MPKI: 16.4927
AGUS PREFETCH L1 MISS: 0
LLC WRITEBACK ACCESS:     688301  HIT:     688295  MISS:          6  HIT %:    99.9991  MISS %: 0.000871712   MPKI: 0.00012
LLC LOAD TRANSLATION ACCESS:       3434  HIT:          0  MISS:       3434  HIT %:          0  MISS %:        100   MPKI: 0.06868
LLC PREFETCH  REQUESTED:          0  ISSUED:          0  USEFUL:         11  USELESS:     827118
LLC USEFUL LOAD PREFETCHES:         11 PREFETCH ISSUED TO LOWER LEVEL:     824638  ACCURACY: 0.00133392
LLC TIMELY PREFETCHES:         11 LATE PREFETCHES: 0 DROPPED PREFETCHES: 0
LLC PREFETCHES SAME FILL-ORIGIN LEVEL: 0 DIFFERENT FILL-ORIGIN LEVEL: 0
LLC AVERAGE MISS LATENCY: 244.442 cycles
LLC RQ	ACCESS:     852582	FORWARD:          0	MERGED:          0	TO_CACHE:     852582
LLC WQ	ACCESS:     688302	FORWARD:          0	MERGED:          0	TO_CACHE:     688302
LLC PQ	ACCESS:     824767	FORWARD:          0	MERGED:          0	TO_CACHE:     824767

LLC Dense regions hint to LLC: 0

RAW hits: 20
Loads Generated: 10366976
Loads sent to L1D: 10366956
Stores Generated: 8310597
Stores sent to L1D: 8310588
Major fault: 0 Minor fault: 27049
Allocated PAGES: 27049
CPU 0 L1D nextline prefetcher final stats
 Action = 30 : 375655
 Action = 23 : 323181
 Action = 16 : 336520
 Action = 11 : 371635
 Action = 10 : 344758
 Action = 22 : 329661
 Action = 5 : 365037
 Action = 4 : 377426
 Action = 32 : 681109
 Action = -3 : 361509
 Action = 12 : 322559
 Action = -6 : 398961
 Action = 3 : 363182
 Action = 1 : 2726694
 Action = -1 : 337974
 Action = 0 : 4257874
---------------Prefetch degree counts-----------------------
 prefetch degree = 5 : 2504
 number of times low bandwidth is  10055406
number of times high bandwidth is 1767099

DRAM Statistics
 CHANNEL 0
 RQ ROW_BUFFER_HIT:     814640  ROW_BUFFER_MISS:     862569
 DBUS_CONGESTED:        267
 WQ ROW_BUFFER_HIT:     149619  ROW_BUFFER_MISS:     534666  FULL:          0

 AVG_CONGESTED_CYCLE: 5
 All warmup complete: 2
Channel 0 Bank busy for read cycles: 0
Channel 0 Bank busy for write cycles: 0
Channel 0
Rank 0
0banks busy for read cycles: 43750453
0banks busy for write cycles: 58835
1banks busy for read cycles: 16901084
1banks busy for write cycles: 8389447
2banks busy for read cycles: 5167437
2banks busy for write cycles: 1357178
3banks busy for read cycles: 4568941
3banks busy for write cycles: 562453
4banks busy for read cycles: 4204333
4banks busy for write cycles: 329968
5banks busy for read cycles: 4055269
5banks busy for write cycles: 234330
6banks busy for read cycles: 3973032
6banks busy for write cycles: 203417
7banks busy for read cycles: 3829407
7banks busy for write cycles: 755945
8banks busy for read cycles: 6135744
8banks busy for write cycles: 12252909

CPU 0 Branch Prediction Accuracy: 87.8141% MPKI: 21.4311 Average ROB Occupancy at Mispredict: 3.35682
Branch types
NOT_BRANCH: 41206857 82.4137%
BRANCH_DIRECT_JUMP: 44 8.8e-05%
BRANCH_INDIRECT: 0 0%
BRANCH_CONDITIONAL: 8793341 17.5867%
BRANCH_DIRECT_CALL: 6 1.2e-05%
BRANCH_INDIRECT_CALL: 0 0%
BRANCH_RETURN: 8 1.6e-05%
BRANCH_OTHER: 0 0%

DRAM PAGES: 1048576
Allocated PAGES: 27049
