
*** ChampSim Multicore Out-of-Order Simulator ***

Warmup Instructions: 50000000
Simulation Instructions: 50000000
Number of CPUs: 1
LLC sets: 2048
LLC ways: 16
Off-chip DRAM Size: 4096 MB Channels: 1 Width: 64-bit Data Rate: 6400 MT/s
CPU 0 runs ../Ligra/ligra_BC.com-lj.ungraph.gcc_6.3.0_O3.drop_26750M.length_250M.champsimtrace.xz
.xz
CPU 0 Bimodal branch predictor
BTB has LRU replacement policy
ITLB has LRU replacement policy
DTLB has LRU replacement policy
STLB has LRU replacement policy
L1I has LRU replacement policy
L1D has LRU replacement policy
L2C has LRU replacement policy
LLC has LRU replacement policy
Heartbeat CPU 0 instructions: 10000003 cycles: 3333425 heartbeat IPC: 2.99992 cumulative IPC: 2.99992 (Simulation time: 0 hr 0 min 4 sec) 
Heartbeat CPU 0 instructions: 20000000 cycles: 6666755 heartbeat IPC: 3 cumulative IPC: 2.99996 (Simulation time: 0 hr 0 min 8 sec) 
Heartbeat CPU 0 instructions: 30000003 cycles: 9999744 heartbeat IPC: 3.00031 cumulative IPC: 3.00008 (Simulation time: 0 hr 0 min 12 sec) 
Heartbeat CPU 0 instructions: 40000003 cycles: 13331776 heartbeat IPC: 3.00117 cumulative IPC: 3.00035 (Simulation time: 0 hr 0 min 16 sec) 
Heartbeat CPU 0 instructions: 50000000 cycles: 16664022 heartbeat IPC: 3.00098 cumulative IPC: 3.00048 (Simulation time: 0 hr 0 min 20 sec) 

Warmup complete CPU 0 instructions: 50000003 cycles: 16664023 (Simulation time: 0 hr 0 min 20 sec) 

Heartbeat CPU 0 instructions: 60000000 cycles: 46673873 heartbeat IPC: 0.333224 cumulative IPC: 0.333224 (Simulation time: 0 hr 0 min 33 sec) 
Heartbeat CPU 0 instructions: 70000000 cycles: 76133739 heartbeat IPC: 0.339445 cumulative IPC: 0.336306 (Simulation time: 0 hr 0 min 45 sec) 
Heartbeat CPU 0 instructions: 80000000 cycles: 104048495 heartbeat IPC: 0.358233 cumulative IPC: 0.34331 (Simulation time: 0 hr 1 min 2 sec) 
Heartbeat CPU 0 instructions: 90000000 cycles: 132455857 heartbeat IPC: 0.352021 cumulative IPC: 0.345447 (Simulation time: 0 hr 1 min 29 sec) 
Heartbeat CPU 0 instructions: 100000000 cycles: 160810035 heartbeat IPC: 0.352682 cumulative IPC: 0.34687 (Simulation time: 0 hr 1 min 57 sec) 
Finished CPU 0 instructions: 50000001 cycles: 144146013 cumulative IPC: 0.34687 (Simulation time: 0 hr 1 min 57 sec) 

ChampSim completed all CPUs

Region of Interest Statistics

CPU 0 cumulative IPC: 0.34687 instructions: 50000001 cycles: 144146013
ITLB TOTAL     ACCESS:    7931608  HIT:    7931607  MISS:          1  HIT %:        100  MISS %: 1.26078e-05   MPKI: 2e-05
ITLB LOAD TRANSLATION ACCESS:    7931608  HIT:    7931607  MISS:          1  HIT %:        100  MISS %: 1.26078e-05   MPKI: 2e-05
ITLB PREFETCH  REQUESTED:          0  ISSUED:          0  USEFUL:          0  USELESS:          0
ITLB USEFUL LOAD PREFETCHES:          0 PREFETCH ISSUED TO LOWER LEVEL:          0  ACCURACY: -nan
ITLB TIMELY PREFETCHES:          0 LATE PREFETCHES: 0 DROPPED PREFETCHES: 0
ITLB PREFETCHES SAME FILL-ORIGIN LEVEL: 0 DIFFERENT FILL-ORIGIN LEVEL: 0
ITLB AVERAGE MISS LATENCY: 320 cycles
ITLB RQ	ACCESS:    7931629	FORWARD:          0	MERGED:         21	TO_CACHE:    7931608

DTLB TOTAL     ACCESS:    8940774  HIT:    8913750  MISS:      27024  HIT %:    99.6977  MISS %:   0.302256   MPKI: 0.54048
DTLB LOAD TRANSLATION ACCESS:    8940774  HIT:    8913750  MISS:      27024  HIT %:    99.6977  MISS %:   0.302256   MPKI: 0.54048
DTLB PREFETCH  REQUESTED:          0  ISSUED:          0  USEFUL:          0  USELESS:          0
DTLB USEFUL LOAD PREFETCHES:          0 PREFETCH ISSUED TO LOWER LEVEL:          0  ACCURACY: -nan
DTLB TIMELY PREFETCHES:          0 LATE PREFETCHES: 0 DROPPED PREFETCHES: 0
DTLB PREFETCHES SAME FILL-ORIGIN LEVEL: 0 DIFFERENT FILL-ORIGIN LEVEL: 0
DTLB AVERAGE MISS LATENCY: 151.775 cycles
DTLB RQ	ACCESS:   12743447	FORWARD:          0	MERGED:    3758048	TO_CACHE:    8985399

STLB TOTAL     ACCESS:      27025  HIT:        182  MISS:      26843  HIT %:   0.673451  MISS %:    99.3265   MPKI: 0.53686
STLB LOAD TRANSLATION ACCESS:      27025  HIT:        182  MISS:      26843  HIT %:   0.673451  MISS %:    99.3265   MPKI: 0.53686
STLB PREFETCH  REQUESTED:          0  ISSUED:          0  USEFUL:          0  USELESS:          0
STLB USEFUL LOAD PREFETCHES:          0 PREFETCH ISSUED TO LOWER LEVEL:          0  ACCURACY: -nan
STLB TIMELY PREFETCHES:          0 LATE PREFETCHES: 0 DROPPED PREFETCHES: 0
STLB PREFETCHES SAME FILL-ORIGIN LEVEL: 0 DIFFERENT FILL-ORIGIN LEVEL: 0
STLB AVERAGE MISS LATENCY: 143.287 cycles
STLB RQ	ACCESS:      27025	FORWARD:          0	MERGED:          0	TO_CACHE:      27025

STLB Hit, L1D data hit: 0
STLB Hit, L2C data hit: 0
STLB Hit, LLC data hit: 0
STLB Hit, LLC data miss: 0
STLB STLB hints to L2: 0
L1D TOTAL     ACCESS:    7149450  HIT:    5593840  MISS:    1555610  HIT %:    78.2415  MISS %:    21.7585   MPKI: 31.1122
L1D LOAD      ACCESS:    3967568  HIT:    3097151  MISS:     870417  HIT %:    78.0617  MISS %:    21.9383   MPKI: 17.4083
L1D RFO       ACCESS:    3181882  HIT:    2496689  MISS:     685193  HIT %:    78.4658  MISS %:    21.5342   MPKI: 13.7039
L1D PREFETCH  REQUESTED:          0  ISSUED:          0  USEFUL:          0  USELESS:          0
L1D USEFUL LOAD PREFETCHES:          0 PREFETCH ISSUED TO LOWER LEVEL:          0  ACCURACY: -nan
L1D TIMELY PREFETCHES:          0 LATE PREFETCHES: 0 DROPPED PREFETCHES: 0
L1D PREFETCHES SAME FILL-ORIGIN LEVEL: 0 DIFFERENT FILL-ORIGIN LEVEL: 0
L1D AVERAGE MISS LATENCY: 251.574 cycles
L1D RQ	ACCESS:   10366956	FORWARD:          0	MERGED:    5934096	TO_CACHE:    4432860
L1D WQ	ACCESS:    8310588	FORWARD:          0	MERGED:          1	TO_CACHE:    8310587

L1D UNIQUE REGIONS ACCESSED: 0
L1D REGIONS CONFLICTS: 0
L1D Cross Page Prefetch Requests: 0
L1D Same Page Prefetch Requests: 0
L1D ROI Sum of L1D PQ occupancy: 0
L1D PREFETCHES PUSHED FROM L2C: 0
L1I TOTAL     ACCESS:    7931628  HIT:    7931613  MISS:         15  HIT %:    99.9998  MISS %: 0.000189116   MPKI: 0.0003
L1I LOAD      ACCESS:    7931628  HIT:    7931613  MISS:         15  HIT %:    99.9998  MISS %: 0.000189116   MPKI: 0.0003
L1I PREFETCH  REQUESTED:          0  ISSUED:          0  USEFUL:          0  USELESS:          0
L1I USEFUL LOAD PREFETCHES:          0 PREFETCH ISSUED TO LOWER LEVEL:          0  ACCURACY: -nan
L1I TIMELY PREFETCHES:          0 LATE PREFETCHES: 0 DROPPED PREFETCHES: 0
L1I PREFETCHES SAME FILL-ORIGIN LEVEL: 0 DIFFERENT FILL-ORIGIN LEVEL: 0
L1I AVERAGE MISS LATENCY: 202.6 cycles
L1I RQ	ACCESS:   14296229	FORWARD:          0	MERGED:    6364600	TO_CACHE:    7931629

BTB TOTAL     ACCESS:    8792352  HIT:    8792270  MISS:         82  HIT %:    99.9991  MISS %: 0.000932629   MPKI: 0.00164
BTB BRANCH_DIRECT_JUMP	ACCESS:         44  HIT:         24  MISS:         20
BTB BRANCH_INDIRECT	ACCESS:          0  HIT:          0  MISS:          0
BTB BRANCH_CONDITIONAL	ACCESS:    8792294  HIT:    8792244  MISS:         50
BTB BRANCH_DIRECT_CALL	ACCESS:          6  HIT:          1  MISS:          5
BTB BRANCH_INDIRECT_CALL	ACCESS:          0  HIT:          0  MISS:          0
BTB BRANCH_RETURN	ACCESS:          8  HIT:          1  MISS:          7
BTB BRANCH_OTHER ACCESS:          0  HIT:          0  MISS:          0

L2C TOTAL     ACCESS:    2267885  HIT:     708824  MISS:    1559061  HIT %:    31.2548  MISS %:    68.7452   MPKI: 31.1812
L2C LOAD      ACCESS:     870432  HIT:          0  MISS:     870432  HIT %:          0  MISS %:        100   MPKI: 17.4086
L2C DATA LOAD MPKI: 17.4083
L2C INSTRUCTION LOAD MPKI: 0.0003
L2C RFO       ACCESS:     685193  HIT:          0  MISS:     685193  HIT %:          0  MISS %:        100   MPKI: 13.7039
L2C WRITEBACK ACCESS:     685414  HIT:     685412  MISS:          2  HIT %:    99.9997  MISS %: 0.000291794   MPKI: 4e-05
L2C LOAD TRANSLATION ACCESS:      26846  HIT:      23412  MISS:       3434  HIT %:    87.2085  MISS %:    12.7915   MPKI: 0.06868
L2C PREFETCH  REQUESTED:          0  ISSUED:          0  USEFUL:          0  USELESS:          0
L2C USEFUL LOAD PREFETCHES:          0 PREFETCH ISSUED TO LOWER LEVEL:          0  ACCURACY: -nan
L2C TIMELY PREFETCHES:          0 LATE PREFETCHES: 0 DROPPED PREFETCHES: 0
L2C PREFETCHES SAME FILL-ORIGIN LEVEL: 0 DIFFERENT FILL-ORIGIN LEVEL: 0
L2C AVERAGE MISS LATENCY: 235.848 cycles
L2C RQ	ACCESS:    1582471	FORWARD:          0	MERGED:          0	TO_CACHE:    1582471
L2C WQ	ACCESS:     685415	FORWARD:          0	MERGED:          0	TO_CACHE:     685415

L2C Instructions Evicting Data 14
L2C Translations Evicting Data 3424
L2C Data Evicting Data 1552184
L2C Instructions Evicting Instructions 0
L2C Translations Evicting Instructions 0
L2C Data Evicting Instructions 15
L2C Instructions Evicting Translations 1
L2C Translations Evicting Translations 10
L2C Data Evicting Translations 3411
L2C Dense regions hint from L2: 0
PSCL5 TOTAL     ACCESS:      26843  HIT:      26843  MISS:          0  HIT %:        100  MISS %:          0   MPKI: 0
PSCL5 LOAD TRANSLATION ACCESS:      26843  HIT:      26843  MISS:          0  HIT %:        100  MISS %:          0   MPKI: 0
PSCL5 PREFETCH  REQUESTED:          0  ISSUED:          0  USEFUL:          0  USELESS:          0
PSCL5 USEFUL LOAD PREFETCHES:          0 PREFETCH ISSUED TO LOWER LEVEL:          0  ACCURACY: -nan
PSCL5 TIMELY PREFETCHES:          0 LATE PREFETCHES: 0 DROPPED PREFETCHES: 0
PSCL5 PREFETCHES SAME FILL-ORIGIN LEVEL: 0 DIFFERENT FILL-ORIGIN LEVEL: 0

PSCL4 TOTAL     ACCESS:      26843  HIT:      26843  MISS:          0  HIT %:        100  MISS %:          0   MPKI: 0
PSCL4 LOAD TRANSLATION ACCESS:      26843  HIT:      26843  MISS:          0  HIT %:        100  MISS %:          0   MPKI: 0
PSCL4 PREFETCH  REQUESTED:          0  ISSUED:          0  USEFUL:          0  USELESS:          0
PSCL4 USEFUL LOAD PREFETCHES:          0 PREFETCH ISSUED TO LOWER LEVEL:          0  ACCURACY: -nan
PSCL4 TIMELY PREFETCHES:          0 LATE PREFETCHES: 0 DROPPED PREFETCHES: 0
PSCL4 PREFETCHES SAME FILL-ORIGIN LEVEL: 0 DIFFERENT FILL-ORIGIN LEVEL: 0

PSCL3 TOTAL     ACCESS:      26843  HIT:      26843  MISS:          0  HIT %:        100  MISS %:          0   MPKI: 0
PSCL3 LOAD TRANSLATION ACCESS:      26843  HIT:      26843  MISS:          0  HIT %:        100  MISS %:          0   MPKI: 0
PSCL3 PREFETCH  REQUESTED:          0  ISSUED:          0  USEFUL:          0  USELESS:          0
PSCL3 USEFUL LOAD PREFETCHES:          0 PREFETCH ISSUED TO LOWER LEVEL:          0  ACCURACY: -nan
PSCL3 TIMELY PREFETCHES:          0 LATE PREFETCHES: 0 DROPPED PREFETCHES: 0
PSCL3 PREFETCHES SAME FILL-ORIGIN LEVEL: 0 DIFFERENT FILL-ORIGIN LEVEL: 0

PSCL2 TOTAL     ACCESS:      26843  HIT:      26790  MISS:         53  HIT %:    99.8026  MISS %:   0.197444   MPKI: 0.00106
PSCL2 LOAD TRANSLATION ACCESS:      26843  HIT:      26790  MISS:         53  HIT %:    99.8026  MISS %:   0.197444   MPKI: 0.00106
PSCL2 PREFETCH  REQUESTED:          0  ISSUED:          0  USEFUL:          0  USELESS:          0
PSCL2 USEFUL LOAD PREFETCHES:          0 PREFETCH ISSUED TO LOWER LEVEL:          0  ACCURACY: -nan
PSCL2 TIMELY PREFETCHES:          0 LATE PREFETCHES: 0 DROPPED PREFETCHES: 0
PSCL2 PREFETCHES SAME FILL-ORIGIN LEVEL: 0 DIFFERENT FILL-ORIGIN LEVEL: 0

LLC TOTAL     ACCESS:    2247070  HIT:     688028  MISS:    1559042  HIT %:    30.6189  MISS %:    69.3811   MPKI: 31.1808
LLC LOAD      ACCESS:     870432  HIT:         18  MISS:     870414  HIT %: 0.00206794  MISS %:    99.9979   MPKI: 17.4083
LLC RFO       ACCESS:     685193  HIT:          0  MISS:     685193  HIT %:          0  MISS %:        100   MPKI: 13.7039
LLC WRITEBACK ACCESS:     688011  HIT:     688009  MISS:          2  HIT %:    99.9997  MISS %: 0.000290693   MPKI: 4e-05
LLC LOAD TRANSLATION ACCESS:       3434  HIT:          1  MISS:       3433  HIT %:  0.0291206  MISS %:    99.9709   MPKI: 0.06866
LLC PREFETCH  REQUESTED:          0  ISSUED:          0  USEFUL:          0  USELESS:          0
LLC USEFUL LOAD PREFETCHES:          0 PREFETCH ISSUED TO LOWER LEVEL:          0  ACCURACY: -nan
LLC TIMELY PREFETCHES:          0 LATE PREFETCHES: 0 DROPPED PREFETCHES: 0
LLC PREFETCHES SAME FILL-ORIGIN LEVEL: 0 DIFFERENT FILL-ORIGIN LEVEL: 0
LLC AVERAGE MISS LATENCY: 205.14 cycles
LLC RQ	ACCESS:    1559059	FORWARD:          0	MERGED:          0	TO_CACHE:    1559059
LLC WQ	ACCESS:     688012	FORWARD:          0	MERGED:          0	TO_CACHE:     688012

LLC Dense regions hint to LLC: 0

RAW hits: 20
Loads Generated: 10366976
Loads sent to L1D: 10366956
Stores Generated: 8310597
Stores sent to L1D: 8310588
Major fault: 0 Minor fault: 27049
Allocated PAGES: 27049

DRAM Statistics
 CHANNEL 0
 RQ ROW_BUFFER_HIT:     442988  ROW_BUFFER_MISS:    1116052
 DBUS_CONGESTED:        127
 WQ ROW_BUFFER_HIT:     186851  ROW_BUFFER_MISS:     495899  FULL:          0

 AVG_CONGESTED_CYCLE: 5
 All warmup complete: 2
Channel 0 Bank busy for read cycles: 0
Channel 0 Bank busy for write cycles: 0
Channel 0
Rank 0
0banks busy for read cycles: 45117275
0banks busy for write cycles: 77351
1banks busy for read cycles: 28825704
1banks busy for write cycles: 11692222
2banks busy for read cycles: 8325521
2banks busy for write cycles: 1931743
3banks busy for read cycles: 6922383
3banks busy for write cycles: 343141
4banks busy for read cycles: 7212764
4banks busy for write cycles: 180217
5banks busy for read cycles: 6890461
5banks busy for write cycles: 144224
6banks busy for read cycles: 5367897
6banks busy for write cycles: 142274
7banks busy for read cycles: 3185628
7banks busy for write cycles: 838082
8banks busy for read cycles: 940468
8banks busy for write cycles: 16008659

CPU 0 Branch Prediction Accuracy: 87.8141% MPKI: 21.4311 Average ROB Occupancy at Mispredict: 4.0719
Branch types
NOT_BRANCH: 41206952 82.4139%
BRANCH_DIRECT_JUMP: 44 8.8e-05%
BRANCH_INDIRECT: 0 0%
BRANCH_CONDITIONAL: 8793347 17.5867%
BRANCH_DIRECT_CALL: 6 1.2e-05%
BRANCH_INDIRECT_CALL: 0 0%
BRANCH_RETURN: 8 1.6e-05%
BRANCH_OTHER: 0 0%

DRAM PAGES: 1048576
Allocated PAGES: 27049
