
*** ChampSim Multicore Out-of-Order Simulator ***

Warmup Instructions: 50000000
Simulation Instructions: 50000000
Number of CPUs: 1
LLC sets: 2048
LLC ways: 16
Off-chip DRAM Size: 4096 MB Channels: 1 Width: 64-bit Data Rate: 6400 MT/s
CPU 0 runs ../Ligra/ligra_BFSCC.com-lj.ungraph.gcc_6.3.0_O3.drop_3500M.length_250M.champsimtrace.xz
.xz
CPU 0 Bimodal branch predictor
BTB has LRU replacement policy
ITLB has LRU replacement policy
DTLB has LRU replacement policy
STLB has LRU replacement policy
L1I has LRU replacement policy
L1D has LRU replacement policy
L2C has LRU replacement policy
LLC has LRU replacement policy
Heartbeat CPU 0 instructions: 10000002 cycles: 3333345 heartbeat IPC: 2.99999 cumulative IPC: 2.99999 (Simulation time: 0 hr 0 min 4 sec) 
Heartbeat CPU 0 instructions: 20000000 cycles: 6666677 heartbeat IPC: 3 cumulative IPC: 3 (Simulation time: 0 hr 0 min 9 sec) 
Heartbeat CPU 0 instructions: 30000001 cycles: 10000011 heartbeat IPC: 3 cumulative IPC: 3 (Simulation time: 0 hr 0 min 13 sec) 
Heartbeat CPU 0 instructions: 40000001 cycles: 13333345 heartbeat IPC: 3 cumulative IPC: 3 (Simulation time: 0 hr 0 min 18 sec) 
Heartbeat CPU 0 instructions: 50000003 cycles: 16666679 heartbeat IPC: 3 cumulative IPC: 3 (Simulation time: 0 hr 0 min 23 sec) 

Warmup complete CPU 0 instructions: 50000003 cycles: 16666679 (Simulation time: 0 hr 0 min 23 sec) 

Heartbeat CPU 0 instructions: 60000000 cycles: 38270120 heartbeat IPC: 0.462889 cumulative IPC: 0.462889 (Simulation time: 0 hr 0 min 35 sec) 
Heartbeat CPU 0 instructions: 70000000 cycles: 60001805 heartbeat IPC: 0.460158 cumulative IPC: 0.461519 (Simulation time: 0 hr 0 min 47 sec) 
Heartbeat CPU 0 instructions: 80000000 cycles: 81132240 heartbeat IPC: 0.473251 cumulative IPC: 0.465365 (Simulation time: 0 hr 1 min 0 sec) 
Heartbeat CPU 0 instructions: 90000002 cycles: 102335862 heartbeat IPC: 0.471618 cumulative IPC: 0.466912 (Simulation time: 0 hr 1 min 12 sec) 
Heartbeat CPU 0 instructions: 100000001 cycles: 123642152 heartbeat IPC: 0.469345 cumulative IPC: 0.467397 (Simulation time: 0 hr 1 min 24 sec) 
Finished CPU 0 instructions: 50000000 cycles: 106975476 cumulative IPC: 0.467397 (Simulation time: 0 hr 1 min 24 sec) 

ChampSim completed all CPUs

Region of Interest Statistics

CPU 0 cumulative IPC: 0.467397 instructions: 50000000 cycles: 106975476
ITLB TOTAL     ACCESS:    7995033  HIT:    7995033  MISS:          0  HIT %:        100  MISS %:          0   MPKI: 0
ITLB LOAD TRANSLATION ACCESS:    7995033  HIT:    7995033  MISS:          0  HIT %:        100  MISS %:          0   MPKI: 0
ITLB PREFETCH  REQUESTED:          0  ISSUED:          0  USEFUL:          0  USELESS:          0
ITLB USEFUL LOAD PREFETCHES:          0 PREFETCH ISSUED TO LOWER LEVEL:          0  ACCURACY: -nan
ITLB TIMELY PREFETCHES:          0 LATE PREFETCHES: 0 DROPPED PREFETCHES: 0
ITLB PREFETCHES SAME FILL-ORIGIN LEVEL: 0 DIFFERENT FILL-ORIGIN LEVEL: 0
ITLB AVERAGE MISS LATENCY: -nan cycles
ITLB RQ	ACCESS:    7995032	FORWARD:          0	MERGED:          0	TO_CACHE:    7995032

DTLB TOTAL     ACCESS:   10966958  HIT:   10964163  MISS:       2795  HIT %:    99.9745  MISS %:  0.0254856   MPKI: 0.0559
DTLB LOAD TRANSLATION ACCESS:   10966958  HIT:   10964163  MISS:       2795  HIT %:    99.9745  MISS %:  0.0254856   MPKI: 0.0559
DTLB PREFETCH  REQUESTED:          0  ISSUED:          0  USEFUL:          0  USELESS:          0
DTLB USEFUL LOAD PREFETCHES:          0 PREFETCH ISSUED TO LOWER LEVEL:          0  ACCURACY: -nan
DTLB TIMELY PREFETCHES:          0 LATE PREFETCHES: 0 DROPPED PREFETCHES: 0
DTLB PREFETCHES SAME FILL-ORIGIN LEVEL: 0 DIFFERENT FILL-ORIGIN LEVEL: 0
DTLB AVERAGE MISS LATENCY: 145.188 cycles
DTLB RQ	ACCESS:   11005266	FORWARD:          0	MERGED:      35000	TO_CACHE:   10970266

STLB TOTAL     ACCESS:       2795  HIT:          0  MISS:       2795  HIT %:          0  MISS %:        100   MPKI: 0.0559
STLB LOAD TRANSLATION ACCESS:       2795  HIT:          0  MISS:       2795  HIT %:          0  MISS %:        100   MPKI: 0.0559
STLB PREFETCH  REQUESTED:          0  ISSUED:          0  USEFUL:          0  USELESS:          0
STLB USEFUL LOAD PREFETCHES:          0 PREFETCH ISSUED TO LOWER LEVEL:          0  ACCURACY: -nan
STLB TIMELY PREFETCHES:          0 LATE PREFETCHES: 0 DROPPED PREFETCHES: 0
STLB PREFETCHES SAME FILL-ORIGIN LEVEL: 0 DIFFERENT FILL-ORIGIN LEVEL: 0
STLB AVERAGE MISS LATENCY: 136.188 cycles
STLB RQ	ACCESS:       2795	FORWARD:          0	MERGED:          0	TO_CACHE:       2795

STLB Hit, L1D data hit: 0
STLB Hit, L2C data hit: 0
STLB Hit, LLC data hit: 0
STLB Hit, LLC data miss: 0
STLB STLB hints to L2: 0
L1D TOTAL     ACCESS:    9973837  HIT:    9794969  MISS:     178868  HIT %:    98.2066  MISS %:    1.79337   MPKI: 3.57736
L1D LOAD      ACCESS:    5052136  HIT:    4962702  MISS:      89434  HIT %:    98.2298  MISS %:    1.77022   MPKI: 1.78868
L1D RFO       ACCESS:    4921701  HIT:    4832267  MISS:      89434  HIT %:    98.1829  MISS %:    1.81714   MPKI: 1.78868
L1D PREFETCH  REQUESTED:          0  ISSUED:          0  USEFUL:          0  USELESS:          0
L1D USEFUL LOAD PREFETCHES:          0 PREFETCH ISSUED TO LOWER LEVEL:          0  ACCURACY: -nan
L1D TIMELY PREFETCHES:          0 LATE PREFETCHES: 0 DROPPED PREFETCHES: 0
L1D PREFETCHES SAME FILL-ORIGIN LEVEL: 0 DIFFERENT FILL-ORIGIN LEVEL: 0
L1D AVERAGE MISS LATENCY: 169.16 cycles
L1D RQ	ACCESS:   10690511	FORWARD:          0	MERGED:    5409040	TO_CACHE:    5281471
L1D WQ	ACCESS:    5723795	FORWARD:          0	MERGED:          0	TO_CACHE:    5723795

L1D UNIQUE REGIONS ACCESSED: 0
L1D REGIONS CONFLICTS: 0
L1D Cross Page Prefetch Requests: 0
L1D Same Page Prefetch Requests: 0
L1D ROI Sum of L1D PQ occupancy: 0
L1D PREFETCHES PUSHED FROM L2C: 0
L1I TOTAL     ACCESS:    7995032  HIT:    7995032  MISS:          0  HIT %:        100  MISS %:          0   MPKI: 0
L1I LOAD      ACCESS:    7995032  HIT:    7995032  MISS:          0  HIT %:        100  MISS %:          0   MPKI: 0
L1I PREFETCH  REQUESTED:          0  ISSUED:          0  USEFUL:          0  USELESS:          0
L1I USEFUL LOAD PREFETCHES:          0 PREFETCH ISSUED TO LOWER LEVEL:          0  ACCURACY: -nan
L1I TIMELY PREFETCHES:          0 LATE PREFETCHES: 0 DROPPED PREFETCHES: 0
L1I PREFETCHES SAME FILL-ORIGIN LEVEL: 0 DIFFERENT FILL-ORIGIN LEVEL: 0
L1I AVERAGE MISS LATENCY: -nan cycles
L1I RQ	ACCESS:   14475899	FORWARD:          0	MERGED:    6480867	TO_CACHE:    7995032

BTB TOTAL     ACCESS:   11447585  HIT:   11447583  MISS:          2  HIT %:        100  MISS %: 1.74709e-05   MPKI: 4e-05
BTB BRANCH_DIRECT_JUMP	ACCESS:          0  HIT:          0  MISS:          0
BTB BRANCH_INDIRECT	ACCESS:          0  HIT:          0  MISS:          0
BTB BRANCH_CONDITIONAL	ACCESS:   11447585  HIT:   11447583  MISS:          2
BTB BRANCH_DIRECT_CALL	ACCESS:          0  HIT:          0  MISS:          0
BTB BRANCH_INDIRECT_CALL	ACCESS:          0  HIT:          0  MISS:          0
BTB BRANCH_RETURN	ACCESS:          0  HIT:          0  MISS:          0
BTB BRANCH_OTHER ACCESS:          0  HIT:          0  MISS:          0

L2C TOTAL     ACCESS:     271097  HIT:      91874  MISS:     179223  HIT %:    33.8897  MISS %:    66.1103   MPKI: 3.58446
L2C LOAD      ACCESS:      89434  HIT:          0  MISS:      89434  HIT %:          0  MISS %:        100   MPKI: 1.78868
L2C DATA LOAD MPKI: 1.78868
L2C INSTRUCTION LOAD MPKI: 0
L2C RFO       ACCESS:      89434  HIT:          0  MISS:      89434  HIT %:          0  MISS %:        100   MPKI: 1.78868
L2C WRITEBACK ACCESS:      89434  HIT:      89434  MISS:          0  HIT %:        100  MISS %:          0   MPKI: 0
L2C LOAD TRANSLATION ACCESS:       2795  HIT:       2440  MISS:        355  HIT %:    87.2987  MISS %:    12.7013   MPKI: 0.0071
L2C PREFETCH  REQUESTED:          0  ISSUED:          0  USEFUL:          0  USELESS:          0
L2C USEFUL LOAD PREFETCHES:          0 PREFETCH ISSUED TO LOWER LEVEL:          0  ACCURACY: -nan
L2C TIMELY PREFETCHES:          0 LATE PREFETCHES: 0 DROPPED PREFETCHES: 0
L2C PREFETCHES SAME FILL-ORIGIN LEVEL: 0 DIFFERENT FILL-ORIGIN LEVEL: 0
L2C AVERAGE MISS LATENCY: 154.248 cycles
L2C RQ	ACCESS:     181663	FORWARD:          0	MERGED:          0	TO_CACHE:     181663
L2C WQ	ACCESS:      89434	FORWARD:          0	MERGED:          0	TO_CACHE:      89434

L2C Instructions Evicting Data 0
L2C Translations Evicting Data 355
L2C Data Evicting Data 178511
L2C Instructions Evicting Instructions 0
L2C Translations Evicting Instructions 0
L2C Data Evicting Instructions 0
L2C Instructions Evicting Translations 0
L2C Translations Evicting Translations 0
L2C Data Evicting Translations 357
L2C Dense regions hint from L2: 0
PSCL5 TOTAL     ACCESS:       2795  HIT:       2795  MISS:          0  HIT %:        100  MISS %:          0   MPKI: 0
PSCL5 LOAD TRANSLATION ACCESS:       2795  HIT:       2795  MISS:          0  HIT %:        100  MISS %:          0   MPKI: 0
PSCL5 PREFETCH  REQUESTED:          0  ISSUED:          0  USEFUL:          0  USELESS:          0
PSCL5 USEFUL LOAD PREFETCHES:          0 PREFETCH ISSUED TO LOWER LEVEL:          0  ACCURACY: -nan
PSCL5 TIMELY PREFETCHES:          0 LATE PREFETCHES: 0 DROPPED PREFETCHES: 0
PSCL5 PREFETCHES SAME FILL-ORIGIN LEVEL: 0 DIFFERENT FILL-ORIGIN LEVEL: 0

PSCL4 TOTAL     ACCESS:       2795  HIT:       2795  MISS:          0  HIT %:        100  MISS %:          0   MPKI: 0
PSCL4 LOAD TRANSLATION ACCESS:       2795  HIT:       2795  MISS:          0  HIT %:        100  MISS %:          0   MPKI: 0
PSCL4 PREFETCH  REQUESTED:          0  ISSUED:          0  USEFUL:          0  USELESS:          0
PSCL4 USEFUL LOAD PREFETCHES:          0 PREFETCH ISSUED TO LOWER LEVEL:          0  ACCURACY: -nan
PSCL4 TIMELY PREFETCHES:          0 LATE PREFETCHES: 0 DROPPED PREFETCHES: 0
PSCL4 PREFETCHES SAME FILL-ORIGIN LEVEL: 0 DIFFERENT FILL-ORIGIN LEVEL: 0

PSCL3 TOTAL     ACCESS:       2795  HIT:       2795  MISS:          0  HIT %:        100  MISS %:          0   MPKI: 0
PSCL3 LOAD TRANSLATION ACCESS:       2795  HIT:       2795  MISS:          0  HIT %:        100  MISS %:          0   MPKI: 0
PSCL3 PREFETCH  REQUESTED:          0  ISSUED:          0  USEFUL:          0  USELESS:          0
PSCL3 USEFUL LOAD PREFETCHES:          0 PREFETCH ISSUED TO LOWER LEVEL:          0  ACCURACY: -nan
PSCL3 TIMELY PREFETCHES:          0 LATE PREFETCHES: 0 DROPPED PREFETCHES: 0
PSCL3 PREFETCHES SAME FILL-ORIGIN LEVEL: 0 DIFFERENT FILL-ORIGIN LEVEL: 0

PSCL2 TOTAL     ACCESS:       2795  HIT:       2789  MISS:          6  HIT %:    99.7853  MISS %:   0.214669   MPKI: 0.00012
PSCL2 LOAD TRANSLATION ACCESS:       2795  HIT:       2789  MISS:          6  HIT %:    99.7853  MISS %:   0.214669   MPKI: 0.00012
PSCL2 PREFETCH  REQUESTED:          0  ISSUED:          0  USEFUL:          0  USELESS:          0
PSCL2 USEFUL LOAD PREFETCHES:          0 PREFETCH ISSUED TO LOWER LEVEL:          0  ACCURACY: -nan
PSCL2 TIMELY PREFETCHES:          0 LATE PREFETCHES: 0 DROPPED PREFETCHES: 0
PSCL2 PREFETCHES SAME FILL-ORIGIN LEVEL: 0 DIFFERENT FILL-ORIGIN LEVEL: 0

LLC TOTAL     ACCESS:     268619  HIT:      89396  MISS:     179223  HIT %:    33.2798  MISS %:    66.7202   MPKI: 3.58446
LLC LOAD      ACCESS:      89434  HIT:          0  MISS:      89434  HIT %:          0  MISS %:        100   MPKI: 1.78868
LLC RFO       ACCESS:      89434  HIT:          0  MISS:      89434  HIT %:          0  MISS %:        100   MPKI: 1.78868
LLC WRITEBACK ACCESS:      89396  HIT:      89396  MISS:          0  HIT %:        100  MISS %:          0   MPKI: 0
LLC LOAD TRANSLATION ACCESS:        355  HIT:          0  MISS:        355  HIT %:          0  MISS %:        100   MPKI: 0.0071
LLC PREFETCH  REQUESTED:          0  ISSUED:          0  USEFUL:          0  USELESS:          0
LLC USEFUL LOAD PREFETCHES:          0 PREFETCH ISSUED TO LOWER LEVEL:          0  ACCURACY: -nan
LLC TIMELY PREFETCHES:          0 LATE PREFETCHES: 0 DROPPED PREFETCHES: 0
LLC PREFETCHES SAME FILL-ORIGIN LEVEL: 0 DIFFERENT FILL-ORIGIN LEVEL: 0
LLC AVERAGE MISS LATENCY: 124.248 cycles
LLC RQ	ACCESS:     179223	FORWARD:          0	MERGED:          0	TO_CACHE:     179223
LLC WQ	ACCESS:      89396	FORWARD:          0	MERGED:          0	TO_CACHE:      89396

LLC Dense regions hint to LLC: 0

RAW hits: 0
Loads Generated: 10690512
Loads sent to L1D: 10690511
Stores Generated: 5723794
Stores sent to L1D: 5723795
Major fault: 0 Minor fault: 5612
Allocated PAGES: 5612

DRAM Statistics
 CHANNEL 0
 RQ ROW_BUFFER_HIT:      81999  ROW_BUFFER_MISS:      97224
 DBUS_CONGESTED:          0
 WQ ROW_BUFFER_HIT:       4338  ROW_BUFFER_MISS:      85113  FULL:          0

 AVG_CONGESTED_CYCLE: -
 All warmup complete: 2
Channel 0 Bank busy for read cycles: 0
Channel 0 Bank busy for write cycles: 0
Channel 0
Rank 0
0banks busy for read cycles: 74403941
0banks busy for write cycles: 87481
1banks busy for read cycles: 18665622
1banks busy for write cycles: 13569210
2banks busy for read cycles: 8964
2banks busy for write cycles: 240228
3banks busy for read cycles: 0
3banks busy for write cycles: 31
4banks busy for read cycles: 0
4banks busy for write cycles: 0
5banks busy for read cycles: 0
5banks busy for write cycles: 0
6banks busy for read cycles: 0
6banks busy for write cycles: 0
7banks busy for read cycles: 0
7banks busy for write cycles: 0
8banks busy for read cycles: 0
8banks busy for write cycles: 0

CPU 0 Branch Prediction Accuracy: 93.3866% MPKI: 15.1416 Average ROB Occupancy at Mispredict: 14.1576
Branch types
NOT_BRANCH: 38552411 77.1048%
BRANCH_DIRECT_JUMP: 0 0%
BRANCH_INDIRECT: 0 0%
BRANCH_CONDITIONAL: 11447591 22.8952%
BRANCH_DIRECT_CALL: 0 0%
BRANCH_INDIRECT_CALL: 0 0%
BRANCH_RETURN: 0 0%
BRANCH_OTHER: 0 0%

DRAM PAGES: 1048576
Allocated PAGES: 5612
