
*** ChampSim Multicore Out-of-Order Simulator ***

Warmup Instructions: 50000000
Simulation Instructions: 50000000
Number of CPUs: 1
LLC sets: 2048
LLC ways: 16
Off-chip DRAM Size: 4096 MB Channels: 1 Width: 64-bit Data Rate: 6400 MT/s
CPU 0 runs ../Ligra/ligra_BC.com-lj.ungraph.gcc_6.3.0_O3.drop_15500M.length_250M.champsimtrace.xz
.xz
CPU 0 Bimodal branch predictor
BTB has LRU replacement policy
ITLB has LRU replacement policy
DTLB has LRU replacement policy
STLB has LRU replacement policy
L1I has LRU replacement policy
CPU 0 L1D - Pythia Preftecher 
L1D has LRU replacement policy
--------- This is L2C prefetcher --------------
L2C has LRU replacement policy
LLC has LRU replacement policy
Heartbeat CPU 0 instructions: 10000003 cycles: 2666961 heartbeat IPC: 3.74959 cumulative IPC: 3.74959 (Simulation time: 0 hr 0 min 9 sec) 
Heartbeat CPU 0 instructions: 20000000 cycles: 5333626 heartbeat IPC: 3.75 cumulative IPC: 3.74979 (Simulation time: 0 hr 0 min 18 sec) 
Heartbeat CPU 0 instructions: 30000003 cycles: 8000294 heartbeat IPC: 3.75 cumulative IPC: 3.74986 (Simulation time: 0 hr 0 min 27 sec) 
Heartbeat CPU 0 instructions: 40000003 cycles: 10666957 heartbeat IPC: 3.75001 cumulative IPC: 3.7499 (Simulation time: 0 hr 0 min 37 sec) 
Heartbeat CPU 0 instructions: 50000001 cycles: 13333623 heartbeat IPC: 3.75 cumulative IPC: 3.74992 (Simulation time: 0 hr 0 min 46 sec) 

Warmup complete CPU 0 instructions: 50000001 cycles: 13333623 (Simulation time: 0 hr 0 min 46 sec) 

Heartbeat CPU 0 instructions: 60000002 cycles: 25867583 heartbeat IPC: 0.797833 cumulative IPC: 0.797833 (Simulation time: 0 hr 1 min 4 sec) 
Heartbeat CPU 0 instructions: 70000000 cycles: 41473958 heartbeat IPC: 0.640764 cumulative IPC: 0.710724 (Simulation time: 0 hr 1 min 19 sec) 
Heartbeat CPU 0 instructions: 80000001 cycles: 52977154 heartbeat IPC: 0.869324 cumulative IPC: 0.756744 (Simulation time: 0 hr 1 min 34 sec) 
Heartbeat CPU 0 instructions: 90000001 cycles: 65261380 heartbeat IPC: 0.814052 cumulative IPC: 0.770301 (Simulation time: 0 hr 1 min 49 sec) 
Heartbeat CPU 0 instructions: 100000000 cycles: 76532713 heartbeat IPC: 0.887206 cumulative IPC: 0.791151 (Simulation time: 0 hr 2 min 5 sec) 
Finished CPU 0 instructions: 50000003 cycles: 63199094 cumulative IPC: 0.791151 (Simulation time: 0 hr 2 min 5 sec) 

ChampSim completed all CPUs

Region of Interest Statistics

CPU 0 cumulative IPC: 0.791151 instructions: 50000003 cycles: 63199094
ITLB TOTAL     ACCESS:    6913600  HIT:    6913600  MISS:          0  HIT %:        100  MISS %:          0   MPKI: 0
ITLB LOAD TRANSLATION ACCESS:    6913600  HIT:    6913600  MISS:          0  HIT %:        100  MISS %:          0   MPKI: 0
ITLB PREFETCH  REQUESTED:          0  ISSUED:          0  USEFUL:          0  USELESS:          0
ITLB USEFUL LOAD PREFETCHES:          0 PREFETCH ISSUED TO LOWER LEVEL:          0  ACCURACY: -nan
ITLB TIMELY PREFETCHES:          0 LATE PREFETCHES: 0 DROPPED PREFETCHES: 0
ITLB PREFETCHES SAME FILL-ORIGIN LEVEL: 0 DIFFERENT FILL-ORIGIN LEVEL: 0
ITLB AVERAGE MISS LATENCY: -nan cycles
ITLB RQ	ACCESS:   10590433	FORWARD:          0	MERGED:    3676834	TO_CACHE:    6913599

DTLB TOTAL     ACCESS:    7869256  HIT:    7849123  MISS:      20133  HIT %:    99.7442  MISS %:   0.255844   MPKI: 0.40266
DTLB LOAD TRANSLATION ACCESS:    7869256  HIT:    7849123  MISS:      20133  HIT %:    99.7442  MISS %:   0.255844   MPKI: 0.40266
DTLB PREFETCH  REQUESTED:          0  ISSUED:          0  USEFUL:          0  USELESS:          0
DTLB USEFUL LOAD PREFETCHES:          0 PREFETCH ISSUED TO LOWER LEVEL:          0  ACCURACY: -nan
DTLB TIMELY PREFETCHES:          0 LATE PREFETCHES: 0 DROPPED PREFETCHES: 0
DTLB PREFETCHES SAME FILL-ORIGIN LEVEL: 0 DIFFERENT FILL-ORIGIN LEVEL: 0
DTLB AVERAGE MISS LATENCY: 159.971 cycles
DTLB RQ	ACCESS:   12427088	FORWARD:          0	MERGED:    4464215	TO_CACHE:    7962873

STLB TOTAL     ACCESS:    1768058  HIT:    1747925  MISS:      20133  HIT %:    98.8613  MISS %:    1.13871   MPKI: 0.40266
STLB LOAD TRANSLATION ACCESS:      20133  HIT:          0  MISS:      20133  HIT %:          0  MISS %:        100   MPKI: 0.40266
STLB TRANSLATION FROM L1D PREFETCHER ACCESS:    1747925  HIT:    1747925  MISS:          0  HIT %:        100  MISS %:          0   MPKI: 0
STLB PREFETCH  REQUESTED:          0  ISSUED:          0  USEFUL:          0  USELESS:          0
STLB USEFUL LOAD PREFETCHES:          0 PREFETCH ISSUED TO LOWER LEVEL:          0  ACCURACY: -nan
STLB TIMELY PREFETCHES:          0 LATE PREFETCHES: 0 DROPPED PREFETCHES: 0
STLB PREFETCHES SAME FILL-ORIGIN LEVEL: 0 DIFFERENT FILL-ORIGIN LEVEL: 0
STLB AVERAGE MISS LATENCY: 150.966 cycles
STLB RQ	ACCESS:    8193647	FORWARD:          0	MERGED:    6425588	TO_CACHE:    1768059

STLB Hit, L1D data hit: 0
STLB Hit, L2C data hit: 0
STLB Hit, LLC data hit: 0
STLB Hit, LLC data miss: 0
STLB STLB hints to L2: 0
L1D TOTAL     ACCESS:   10115906  HIT:    8821440  MISS:    1294466  HIT %:    87.2037  MISS %:    12.7963   MPKI: 25.8893
L1D LOAD      ACCESS:    2364660  HIT:    2308329  MISS:      56331  HIT %:    97.6178  MISS %:     2.3822   MPKI: 1.12662
L1D RFO       ACCESS:    1178077  HIT:     192822  MISS:     985255  HIT %:    16.3675  MISS %:    83.6325   MPKI: 19.7051
L1D PREFETCH  ACCESS:    6573169  HIT:    6320289  MISS:     252880  HIT %:    96.1528  MISS %:    3.84716   MPKI: 5.0576
AGUS PREFETCH L1 MISS: 0
L1D PREFETCH  REQUESTED:   17026124  ISSUED:   17013060  USEFUL:     245477  USELESS:       7399
L1D USEFUL LOAD PREFETCHES:     245477 PREFETCH ISSUED TO LOWER LEVEL:     254386  ACCURACY: 96.4978
L1D TIMELY PREFETCHES:     245477 LATE PREFETCHES: 1505 DROPPED PREFETCHES: 0
L1D PREFETCHES SAME FILL-ORIGIN LEVEL: 254386 DIFFERENT FILL-ORIGIN LEVEL: 0
L1D AVERAGE MISS LATENCY: 271.905 cycles
L1D RQ	ACCESS:    5316900	FORWARD:          0	MERGED:    2810459	TO_CACHE:    2506441
L1D WQ	ACCESS:    9920647	FORWARD:          0	MERGED:          0	TO_CACHE:    9920647
L1D PQ	ACCESS:    8839546	FORWARD:          0	MERGED:     666032	TO_CACHE:    8173514

L1D UNIQUE REGIONS ACCESSED: 0
L1D REGIONS CONFLICTS: 0
L1D Cross Page Prefetch Requests: 0
L1D Same Page Prefetch Requests: 29581335
L1D ROI Sum of L1D PQ occupancy: 115589985
L1D PREFETCHES PUSHED FROM L2C: 0
L1I TOTAL     ACCESS:   10590433  HIT:   10590424  MISS:          9  HIT %:    99.9999  MISS %: 8.49824e-05   MPKI: 0.00018
L1I LOAD      ACCESS:   10590433  HIT:   10590424  MISS:          9  HIT %:    99.9999  MISS %: 8.49824e-05   MPKI: 0.00018
L1I PREFETCH  REQUESTED:          0  ISSUED:          0  USEFUL:          0  USELESS:          0
L1I USEFUL LOAD PREFETCHES:          0 PREFETCH ISSUED TO LOWER LEVEL:          0  ACCURACY: -nan
L1I TIMELY PREFETCHES:          0 LATE PREFETCHES: 0 DROPPED PREFETCHES: 0
L1I PREFETCHES SAME FILL-ORIGIN LEVEL: 0 DIFFERENT FILL-ORIGIN LEVEL: 0
L1I AVERAGE MISS LATENCY: 276.444 cycles
L1I RQ	ACCESS:   15111804	FORWARD:          0	MERGED:    4521371	TO_CACHE:   10590433

BTB TOTAL     ACCESS:    5571283  HIT:    5571235  MISS:         48  HIT %:    99.9991  MISS %: 0.000861561   MPKI: 0.00096
BTB BRANCH_DIRECT_JUMP	ACCESS:         20  HIT:          9  MISS:         11
BTB BRANCH_INDIRECT	ACCESS:          0  HIT:          0  MISS:          0
BTB BRANCH_CONDITIONAL	ACCESS:    5571255  HIT:    5571224  MISS:         31
BTB BRANCH_DIRECT_CALL	ACCESS:          4  HIT:          1  MISS:          3
BTB BRANCH_INDIRECT_CALL	ACCESS:          0  HIT:          0  MISS:          0
BTB BRANCH_RETURN	ACCESS:          4  HIT:          1  MISS:          3
BTB BRANCH_OTHER ACCESS:          0  HIT:          0  MISS:          0

L2C TOTAL     ACCESS:    2300039  HIT:    1010186  MISS:    1289853  HIT %:    43.9204  MISS %:    56.0796   MPKI: 25.7971
L2C LOAD      ACCESS:      54835  HIT:        926  MISS:      53909  HIT %:     1.6887  MISS %:    98.3113   MPKI: 1.07818
L2C DATA LOAD MPKI: 1.078
L2C INSTRUCTION LOAD MPKI: 0.00018
L2C RFO       ACCESS:     985255  HIT:          0  MISS:     985255  HIT %:          0  MISS %:        100   MPKI: 19.7051
L2C PREFETCH  ACCESS:     254385  HIT:       6319  MISS:     248066  HIT %:    2.48403  MISS %:     97.516   MPKI: 4.96132
AGUS PREFETCH L1 MISS: 0
L2C DATA PREFETCH MPKI: 4.96132
L2C INSTRUCTION PREFETCH MPKI: 0
L2C WRITEBACK ACCESS:     985422  HIT:     985422  MISS:          0  HIT %:        100  MISS %:          0   MPKI: 0
L2C LOAD TRANSLATION ACCESS:      20142  HIT:      17519  MISS:       2623  HIT %:    86.9775  MISS %:    13.0225   MPKI: 0.05246
L2C PREFETCH  REQUESTED:          0  ISSUED:          0  USEFUL:        919  USELESS:     245498
L2C USEFUL LOAD PREFETCHES:        919 PREFETCH ISSUED TO LOWER LEVEL:     248067  ACCURACY: 0.370464
L2C TIMELY PREFETCHES:        919 LATE PREFETCHES: 0 DROPPED PREFETCHES: 0
L2C PREFETCHES SAME FILL-ORIGIN LEVEL: 0 DIFFERENT FILL-ORIGIN LEVEL: 0
L2C AVERAGE MISS LATENCY: 258.113 cycles
L2C RQ	ACCESS:    1060234	FORWARD:          0	MERGED:          0	TO_CACHE:    1060234
L2C WQ	ACCESS:     985422	FORWARD:          0	MERGED:          0	TO_CACHE:     985422
L2C PQ	ACCESS:     254386	FORWARD:          0	MERGED:          0	TO_CACHE:     254386

L2C Instructions Evicting Data 9
L2C Translations Evicting Data 2616
L2C Data Evicting Data 1284596
L2C Instructions Evicting Instructions 0
L2C Translations Evicting Instructions 0
L2C Data Evicting Instructions 9
L2C Instructions Evicting Translations 0
L2C Translations Evicting Translations 7
L2C Data Evicting Translations 2616
L2C Dense regions hint from L2: 0
PSCL5 TOTAL     ACCESS:      20133  HIT:      20133  MISS:          0  HIT %:        100  MISS %:          0   MPKI: 0
PSCL5 LOAD TRANSLATION ACCESS:      20133  HIT:      20133  MISS:          0  HIT %:        100  MISS %:          0   MPKI: 0
PSCL5 PREFETCH  REQUESTED:          0  ISSUED:          0  USEFUL:          0  USELESS:          0
PSCL5 USEFUL LOAD PREFETCHES:          0 PREFETCH ISSUED TO LOWER LEVEL:          0  ACCURACY: -nan
PSCL5 TIMELY PREFETCHES:          0 LATE PREFETCHES: 0 DROPPED PREFETCHES: 0
PSCL5 PREFETCHES SAME FILL-ORIGIN LEVEL: 0 DIFFERENT FILL-ORIGIN LEVEL: 0

PSCL4 TOTAL     ACCESS:      20133  HIT:      20133  MISS:          0  HIT %:        100  MISS %:          0   MPKI: 0
PSCL4 LOAD TRANSLATION ACCESS:      20133  HIT:      20133  MISS:          0  HIT %:        100  MISS %:          0   MPKI: 0
PSCL4 PREFETCH  REQUESTED:          0  ISSUED:          0  USEFUL:          0  USELESS:          0
PSCL4 USEFUL LOAD PREFETCHES:          0 PREFETCH ISSUED TO LOWER LEVEL:          0  ACCURACY: -nan
PSCL4 TIMELY PREFETCHES:          0 LATE PREFETCHES: 0 DROPPED PREFETCHES: 0
PSCL4 PREFETCHES SAME FILL-ORIGIN LEVEL: 0 DIFFERENT FILL-ORIGIN LEVEL: 0

PSCL3 TOTAL     ACCESS:      20133  HIT:      20133  MISS:          0  HIT %:        100  MISS %:          0   MPKI: 0
PSCL3 LOAD TRANSLATION ACCESS:      20133  HIT:      20133  MISS:          0  HIT %:        100  MISS %:          0   MPKI: 0
PSCL3 PREFETCH  REQUESTED:          0  ISSUED:          0  USEFUL:          0  USELESS:          0
PSCL3 USEFUL LOAD PREFETCHES:          0 PREFETCH ISSUED TO LOWER LEVEL:          0  ACCURACY: -nan
PSCL3 TIMELY PREFETCHES:          0 LATE PREFETCHES: 0 DROPPED PREFETCHES: 0
PSCL3 PREFETCHES SAME FILL-ORIGIN LEVEL: 0 DIFFERENT FILL-ORIGIN LEVEL: 0

PSCL2 TOTAL     ACCESS:      20133  HIT:      20085  MISS:         48  HIT %:    99.7616  MISS %:   0.238415   MPKI: 0.00096
PSCL2 LOAD TRANSLATION ACCESS:      20133  HIT:      20085  MISS:         48  HIT %:    99.7616  MISS %:   0.238415   MPKI: 0.00096
PSCL2 PREFETCH  REQUESTED:          0  ISSUED:          0  USEFUL:          0  USELESS:          0
PSCL2 USEFUL LOAD PREFETCHES:          0 PREFETCH ISSUED TO LOWER LEVEL:          0  ACCURACY: -nan
PSCL2 TIMELY PREFETCHES:          0 LATE PREFETCHES: 0 DROPPED PREFETCHES: 0
PSCL2 PREFETCHES SAME FILL-ORIGIN LEVEL: 0 DIFFERENT FILL-ORIGIN LEVEL: 0

LLC TOTAL     ACCESS:    2276795  HIT:     987152  MISS:    1289643  HIT %:    43.3571  MISS %:    56.6429   MPKI: 25.7929
LLC LOAD      ACCESS:      53909  HIT:          7  MISS:      53902  HIT %:  0.0129848  MISS %:     99.987   MPKI: 1.07804
LLC RFO       ACCESS:     985255  HIT:          0  MISS:     985255  HIT %:          0  MISS %:        100   MPKI: 19.7051
LLC PREFETCH  ACCESS:     248066  HIT:        153  MISS:     247913  HIT %:  0.0616771  MISS %:    99.9383   MPKI: 4.95826
AGUS PREFETCH L1 MISS: 0
LLC WRITEBACK ACCESS:     986942  HIT:     986942  MISS:          0  HIT %:        100  MISS %:          0   MPKI: 0
LLC LOAD TRANSLATION ACCESS:       2623  HIT:         50  MISS:       2573  HIT %:    1.90621  MISS %:    98.0938   MPKI: 0.05146
LLC PREFETCH  REQUESTED:          0  ISSUED:          0  USEFUL:          7  USELESS:     241347
LLC USEFUL LOAD PREFETCHES:          7 PREFETCH ISSUED TO LOWER LEVEL:     247914  ACCURACY: 0.00282356
LLC TIMELY PREFETCHES:          7 LATE PREFETCHES: 0 DROPPED PREFETCHES: 0
LLC PREFETCHES SAME FILL-ORIGIN LEVEL: 0 DIFFERENT FILL-ORIGIN LEVEL: 0
LLC AVERAGE MISS LATENCY: 226.711 cycles
LLC RQ	ACCESS:    1041789	FORWARD:          0	MERGED:          0	TO_CACHE:    1041789
LLC WQ	ACCESS:     986942	FORWARD:          0	MERGED:          0	TO_CACHE:     986942
LLC PQ	ACCESS:     248067	FORWARD:          0	MERGED:          0	TO_CACHE:     248067

LLC Dense regions hint to LLC: 0

RAW hits: 4
Loads Generated: 5316904
Loads sent to L1D: 5316900
Stores Generated: 9920651
Stores sent to L1D: 9920647
Major fault: 0 Minor fault: 42653
Allocated PAGES: 42653
CPU 0 L1D nextline prefetcher final stats
 Action = 30 : 112062
 Action = 23 : 63914
 Action = 16 : 224044
 Action = 11 : 119024
 Action = 10 : 223679
 Action = 22 : 122593
 Action = 5 : 244703
 Action = 32 : 882587
 Action = -3 : 108080
 Action = 12 : 94017
 Action = -6 : 332525
 Action = 3 : 155702
 Action = 0 : 1233426
 Action = -1 : 222387
 Action = 1 : 4685283
 Action = 4 : 89325
---------------Prefetch degree counts-----------------------
 prefetch degree = 5 : 1819
 number of times low bandwidth is  5988833
number of times high bandwidth is 2386375

DRAM Statistics
 CHANNEL 0
 RQ ROW_BUFFER_HIT:     401344  ROW_BUFFER_MISS:     888299
 DBUS_CONGESTED:        996
 WQ ROW_BUFFER_HIT:     337231  ROW_BUFFER_MISS:     654370  FULL:          0

 AVG_CONGESTED_CYCLE: 5
 All warmup complete: 2
Channel 0 Bank busy for read cycles: 0
Channel 0 Bank busy for write cycles: 0
Channel 0
Rank 0
0banks busy for read cycles: 88351
0banks busy for write cycles: 2
1banks busy for read cycles: 5399420
1banks busy for write cycles: 140057
2banks busy for read cycles: 9563724
2banks busy for write cycles: 140330
3banks busy for read cycles: 8448881
3banks busy for write cycles: 139789
4banks busy for read cycles: 4140395
4banks busy for write cycles: 138894
5banks busy for read cycles: 3257552
5banks busy for write cycles: 139451
6banks busy for read cycles: 3351503
6banks busy for write cycles: 151122
7banks busy for read cycles: 3018513
7banks busy for write cycles: 1258887
8banks busy for read cycles: 4389118
8banks busy for write cycles: 19433106

CPU 0 Branch Prediction Accuracy: 99.1289% MPKI: 1.09324 Average ROB Occupancy at Mispredict: 55.0166
Branch types
NOT_BRANCH: 43724674 87.4493%
BRANCH_DIRECT_JUMP: 20 4e-05%
BRANCH_INDIRECT: 0 0%
BRANCH_CONDITIONAL: 6275318 12.5506%
BRANCH_DIRECT_CALL: 4 8e-06%
BRANCH_INDIRECT_CALL: 0 0%
BRANCH_RETURN: 4 8e-06%
BRANCH_OTHER: 0 0%

DRAM PAGES: 1048576
Allocated PAGES: 42653
