
*** ChampSim Multicore Out-of-Order Simulator ***

Warmup Instructions: 50000000
Simulation Instructions: 50000000
Number of CPUs: 1
LLC sets: 2048
LLC ways: 16
Off-chip DRAM Size: 4096 MB Channels: 1 Width: 64-bit Data Rate: 6400 MT/s
CPU 0 runs ../Ligra/ligra_BFSCC.com-lj.ungraph.gcc_6.3.0_O3.drop_3500M.length_250M.champsimtrace.xz
.xz
CPU 0 Bimodal branch predictor
BTB has LRU replacement policy
ITLB has LRU replacement policy
DTLB has LRU replacement policy
STLB has LRU replacement policy
L1I has LRU replacement policy
CPU 0 L1D - Pythia Preftecher 
L1D has LRU replacement policy
--------- This is L2C prefetcher --------------
L2C has LRU replacement policy
LLC has LRU replacement policy
Heartbeat CPU 0 instructions: 10000002 cycles: 3333345 heartbeat IPC: 2.99999 cumulative IPC: 2.99999 (Simulation time: 0 hr 0 min 10 sec) 
Heartbeat CPU 0 instructions: 20000000 cycles: 6666677 heartbeat IPC: 3 cumulative IPC: 3 (Simulation time: 0 hr 0 min 20 sec) 
Heartbeat CPU 0 instructions: 30000001 cycles: 10000011 heartbeat IPC: 3 cumulative IPC: 3 (Simulation time: 0 hr 0 min 30 sec) 
Heartbeat CPU 0 instructions: 40000001 cycles: 13333345 heartbeat IPC: 3 cumulative IPC: 3 (Simulation time: 0 hr 0 min 40 sec) 
Heartbeat CPU 0 instructions: 50000001 cycles: 16666678 heartbeat IPC: 3 cumulative IPC: 3 (Simulation time: 0 hr 0 min 50 sec) 

Warmup complete CPU 0 instructions: 50000001 cycles: 16666678 (Simulation time: 0 hr 0 min 50 sec) 

Heartbeat CPU 0 instructions: 60000000 cycles: 35734676 heartbeat IPC: 0.524439 cumulative IPC: 0.524439 (Simulation time: 0 hr 1 min 6 sec) 
Heartbeat CPU 0 instructions: 70000000 cycles: 54618937 heartbeat IPC: 0.529541 cumulative IPC: 0.526978 (Simulation time: 0 hr 1 min 22 sec) 
Heartbeat CPU 0 instructions: 80000000 cycles: 73372865 heartbeat IPC: 0.533222 cumulative IPC: 0.529043 (Simulation time: 0 hr 1 min 38 sec) 
Heartbeat CPU 0 instructions: 90000002 cycles: 92216306 heartbeat IPC: 0.530689 cumulative IPC: 0.529453 (Simulation time: 0 hr 1 min 53 sec) 
Heartbeat CPU 0 instructions: 100000001 cycles: 110958032 heartbeat IPC: 0.533569 cumulative IPC: 0.530271 (Simulation time: 0 hr 2 min 9 sec) 
Finished CPU 0 instructions: 50000000 cycles: 94291354 cumulative IPC: 0.530271 (Simulation time: 0 hr 2 min 9 sec) 

ChampSim completed all CPUs

Region of Interest Statistics

CPU 0 cumulative IPC: 0.530271 instructions: 50000000 cycles: 94291354
ITLB TOTAL     ACCESS:    7995032  HIT:    7995032  MISS:          0  HIT %:        100  MISS %:          0   MPKI: 0
ITLB LOAD TRANSLATION ACCESS:    7995032  HIT:    7995032  MISS:          0  HIT %:        100  MISS %:          0   MPKI: 0
ITLB PREFETCH  REQUESTED:          0  ISSUED:          0  USEFUL:          0  USELESS:          0
ITLB USEFUL LOAD PREFETCHES:          0 PREFETCH ISSUED TO LOWER LEVEL:          0  ACCURACY: -nan
ITLB TIMELY PREFETCHES:          0 LATE PREFETCHES: 0 DROPPED PREFETCHES: 0
ITLB PREFETCHES SAME FILL-ORIGIN LEVEL: 0 DIFFERENT FILL-ORIGIN LEVEL: 0
ITLB AVERAGE MISS LATENCY: -nan cycles
ITLB RQ	ACCESS:    7995033	FORWARD:          0	MERGED:          0	TO_CACHE:    7995033

DTLB TOTAL     ACCESS:   10972752  HIT:   10969957  MISS:       2795  HIT %:    99.9745  MISS %:  0.0254722   MPKI: 0.0559
DTLB LOAD TRANSLATION ACCESS:   10972752  HIT:   10969957  MISS:       2795  HIT %:    99.9745  MISS %:  0.0254722   MPKI: 0.0559
DTLB PREFETCH  REQUESTED:          0  ISSUED:          0  USEFUL:          0  USELESS:          0
DTLB USEFUL LOAD PREFETCHES:          0 PREFETCH ISSUED TO LOWER LEVEL:          0  ACCURACY: -nan
DTLB TIMELY PREFETCHES:          0 LATE PREFETCHES: 0 DROPPED PREFETCHES: 0
DTLB PREFETCHES SAME FILL-ORIGIN LEVEL: 0 DIFFERENT FILL-ORIGIN LEVEL: 0
DTLB AVERAGE MISS LATENCY: 145.287 cycles
DTLB RQ	ACCESS:   11011072	FORWARD:          0	MERGED:      35001	TO_CACHE:   10976071

STLB TOTAL     ACCESS:    2180032  HIT:    2177237  MISS:       2795  HIT %:    99.8718  MISS %:   0.128209   MPKI: 0.0559
STLB LOAD TRANSLATION ACCESS:       2795  HIT:          0  MISS:       2795  HIT %:          0  MISS %:        100   MPKI: 0.0559
STLB TRANSLATION FROM L1D PREFETCHER ACCESS:    2177237  HIT:    2177237  MISS:          0  HIT %:        100  MISS %:          0   MPKI: 0
STLB PREFETCH  REQUESTED:          0  ISSUED:          0  USEFUL:          0  USELESS:          0
STLB USEFUL LOAD PREFETCHES:          0 PREFETCH ISSUED TO LOWER LEVEL:          0  ACCURACY: -nan
STLB TIMELY PREFETCHES:          0 LATE PREFETCHES: 0 DROPPED PREFETCHES: 0
STLB PREFETCHES SAME FILL-ORIGIN LEVEL: 0 DIFFERENT FILL-ORIGIN LEVEL: 0
STLB AVERAGE MISS LATENCY: 136.287 cycles
STLB RQ	ACCESS:    7170836	FORWARD:          0	MERGED:    4990804	TO_CACHE:    2180032

STLB Hit, L1D data hit: 0
STLB Hit, L2C data hit: 0
STLB Hit, LLC data hit: 0
STLB Hit, LLC data miss: 0
STLB STLB hints to L2: 0
L1D TOTAL     ACCESS:   17231360  HIT:   17052492  MISS:     178868  HIT %:     98.962  MISS %:    1.03804   MPKI: 3.57736
L1D LOAD      ACCESS:    5272571  HIT:    5265894  MISS:       6677  HIT %:    99.8734  MISS %:   0.126637   MPKI: 0.13354
L1D RFO       ACCESS:    4872915  HIT:    4783481  MISS:      89434  HIT %:    98.1647  MISS %:    1.83533   MPKI: 1.78868
L1D PREFETCH  ACCESS:    7085874  HIT:    7003117  MISS:      82757  HIT %:    98.8321  MISS %:    1.16792   MPKI: 1.65514
AGUS PREFETCH L1 MISS: 0
L1D PREFETCH  REQUESTED:   16227451  ISSUED:   16227248  USEFUL:      82757  USELESS:          0
L1D USEFUL LOAD PREFETCHES:      82757 PREFETCH ISSUED TO LOWER LEVEL:      82847  ACCURACY: 99.8914
L1D TIMELY PREFETCHES:      82757 LATE PREFETCHES: 90 DROPPED PREFETCHES: 0
L1D PREFETCHES SAME FILL-ORIGIN LEVEL: 82847 DIFFERENT FILL-ORIGIN LEVEL: 0
L1D AVERAGE MISS LATENCY: 171.432 cycles
L1D RQ	ACCESS:   10690511	FORWARD:          0	MERGED:    5403234	TO_CACHE:    5287277
L1D WQ	ACCESS:    5723795	FORWARD:          0	MERGED:          0	TO_CACHE:    5723795
L1D PQ	ACCESS:    9059207	FORWARD:          0	MERGED:    1891166	TO_CACHE:    7168041

L1D UNIQUE REGIONS ACCESSED: 0
L1D REGIONS CONFLICTS: 0
L1D Cross Page Prefetch Requests: 0
L1D Same Page Prefetch Requests: 25693111
L1D ROI Sum of L1D PQ occupancy: 97346772
L1D PREFETCHES PUSHED FROM L2C: 0
L1I TOTAL     ACCESS:    7995032  HIT:    7995032  MISS:          0  HIT %:        100  MISS %:          0   MPKI: 0
L1I LOAD      ACCESS:    7995032  HIT:    7995032  MISS:          0  HIT %:        100  MISS %:          0   MPKI: 0
L1I PREFETCH  REQUESTED:          0  ISSUED:          0  USEFUL:          0  USELESS:          0
L1I USEFUL LOAD PREFETCHES:          0 PREFETCH ISSUED TO LOWER LEVEL:          0  ACCURACY: -nan
L1I TIMELY PREFETCHES:          0 LATE PREFETCHES: 0 DROPPED PREFETCHES: 0
L1I PREFETCHES SAME FILL-ORIGIN LEVEL: 0 DIFFERENT FILL-ORIGIN LEVEL: 0
L1I AVERAGE MISS LATENCY: -nan cycles
L1I RQ	ACCESS:   14475899	FORWARD:          0	MERGED:    6480866	TO_CACHE:    7995033

BTB TOTAL     ACCESS:   11447585  HIT:   11447583  MISS:          2  HIT %:        100  MISS %: 1.74709e-05   MPKI: 4e-05
BTB BRANCH_DIRECT_JUMP	ACCESS:          0  HIT:          0  MISS:          0
BTB BRANCH_INDIRECT	ACCESS:          0  HIT:          0  MISS:          0
BTB BRANCH_CONDITIONAL	ACCESS:   11447585  HIT:   11447583  MISS:          2
BTB BRANCH_DIRECT_CALL	ACCESS:          0  HIT:          0  MISS:          0
BTB BRANCH_INDIRECT_CALL	ACCESS:          0  HIT:          0  MISS:          0
BTB BRANCH_RETURN	ACCESS:          0  HIT:          0  MISS:          0
BTB BRANCH_OTHER ACCESS:          0  HIT:          0  MISS:          0

L2C TOTAL     ACCESS:     271096  HIT:      91873  MISS:     179223  HIT %:    33.8895  MISS %:    66.1105   MPKI: 3.58446
L2C LOAD      ACCESS:       6587  HIT:          0  MISS:       6587  HIT %:          0  MISS %:        100   MPKI: 0.13174
L2C DATA LOAD MPKI: 0.13174
L2C INSTRUCTION LOAD MPKI: 0
L2C RFO       ACCESS:      89434  HIT:          0  MISS:      89434  HIT %:          0  MISS %:        100   MPKI: 1.78868
L2C PREFETCH  ACCESS:      82847  HIT:          0  MISS:      82847  HIT %:          0  MISS %:        100   MPKI: 1.65694
AGUS PREFETCH L1 MISS: 0
L2C DATA PREFETCH MPKI: 1.65694
L2C INSTRUCTION PREFETCH MPKI: 0
L2C WRITEBACK ACCESS:      89433  HIT:      89433  MISS:          0  HIT %:        100  MISS %:          0   MPKI: 0
L2C LOAD TRANSLATION ACCESS:       2795  HIT:       2440  MISS:        355  HIT %:    87.2987  MISS %:    12.7013   MPKI: 0.0071
L2C PREFETCH  REQUESTED:          0  ISSUED:          0  USEFUL:          0  USELESS:      83055
L2C USEFUL LOAD PREFETCHES:          0 PREFETCH ISSUED TO LOWER LEVEL:      82847  ACCURACY: 0
L2C TIMELY PREFETCHES:          0 LATE PREFETCHES: 0 DROPPED PREFETCHES: 0
L2C PREFETCHES SAME FILL-ORIGIN LEVEL: 0 DIFFERENT FILL-ORIGIN LEVEL: 0
L2C AVERAGE MISS LATENCY: 156.314 cycles
L2C RQ	ACCESS:      98816	FORWARD:          0	MERGED:          0	TO_CACHE:      98816
L2C WQ	ACCESS:      89433	FORWARD:          0	MERGED:          0	TO_CACHE:      89433
L2C PQ	ACCESS:      82847	FORWARD:          0	MERGED:          0	TO_CACHE:      82847

L2C Instructions Evicting Data 0
L2C Translations Evicting Data 355
L2C Data Evicting Data 178514
L2C Instructions Evicting Instructions 0
L2C Translations Evicting Instructions 0
L2C Data Evicting Instructions 0
L2C Instructions Evicting Translations 0
L2C Translations Evicting Translations 0
L2C Data Evicting Translations 354
L2C Dense regions hint from L2: 0
PSCL5 TOTAL     ACCESS:       2795  HIT:       2795  MISS:          0  HIT %:        100  MISS %:          0   MPKI: 0
PSCL5 LOAD TRANSLATION ACCESS:       2795  HIT:       2795  MISS:          0  HIT %:        100  MISS %:          0   MPKI: 0
PSCL5 PREFETCH  REQUESTED:          0  ISSUED:          0  USEFUL:          0  USELESS:          0
PSCL5 USEFUL LOAD PREFETCHES:          0 PREFETCH ISSUED TO LOWER LEVEL:          0  ACCURACY: -nan
PSCL5 TIMELY PREFETCHES:          0 LATE PREFETCHES: 0 DROPPED PREFETCHES: 0
PSCL5 PREFETCHES SAME FILL-ORIGIN LEVEL: 0 DIFFERENT FILL-ORIGIN LEVEL: 0

PSCL4 TOTAL     ACCESS:       2795  HIT:       2795  MISS:          0  HIT %:        100  MISS %:          0   MPKI: 0
PSCL4 LOAD TRANSLATION ACCESS:       2795  HIT:       2795  MISS:          0  HIT %:        100  MISS %:          0   MPKI: 0
PSCL4 PREFETCH  REQUESTED:          0  ISSUED:          0  USEFUL:          0  USELESS:          0
PSCL4 USEFUL LOAD PREFETCHES:          0 PREFETCH ISSUED TO LOWER LEVEL:          0  ACCURACY: -nan
PSCL4 TIMELY PREFETCHES:          0 LATE PREFETCHES: 0 DROPPED PREFETCHES: 0
PSCL4 PREFETCHES SAME FILL-ORIGIN LEVEL: 0 DIFFERENT FILL-ORIGIN LEVEL: 0

PSCL3 TOTAL     ACCESS:       2795  HIT:       2795  MISS:          0  HIT %:        100  MISS %:          0   MPKI: 0
PSCL3 LOAD TRANSLATION ACCESS:       2795  HIT:       2795  MISS:          0  HIT %:        100  MISS %:          0   MPKI: 0
PSCL3 PREFETCH  REQUESTED:          0  ISSUED:          0  USEFUL:          0  USELESS:          0
PSCL3 USEFUL LOAD PREFETCHES:          0 PREFETCH ISSUED TO LOWER LEVEL:          0  ACCURACY: -nan
PSCL3 TIMELY PREFETCHES:          0 LATE PREFETCHES: 0 DROPPED PREFETCHES: 0
PSCL3 PREFETCHES SAME FILL-ORIGIN LEVEL: 0 DIFFERENT FILL-ORIGIN LEVEL: 0

PSCL2 TOTAL     ACCESS:       2795  HIT:       2789  MISS:          6  HIT %:    99.7853  MISS %:   0.214669   MPKI: 0.00012
PSCL2 LOAD TRANSLATION ACCESS:       2795  HIT:       2789  MISS:          6  HIT %:    99.7853  MISS %:   0.214669   MPKI: 0.00012
PSCL2 PREFETCH  REQUESTED:          0  ISSUED:          0  USEFUL:          0  USELESS:          0
PSCL2 USEFUL LOAD PREFETCHES:          0 PREFETCH ISSUED TO LOWER LEVEL:          0  ACCURACY: -nan
PSCL2 TIMELY PREFETCHES:          0 LATE PREFETCHES: 0 DROPPED PREFETCHES: 0
PSCL2 PREFETCHES SAME FILL-ORIGIN LEVEL: 0 DIFFERENT FILL-ORIGIN LEVEL: 0

LLC TOTAL     ACCESS:     268744  HIT:      89521  MISS:     179223  HIT %:    33.3109  MISS %:    66.6891   MPKI: 3.58446
LLC LOAD      ACCESS:       6587  HIT:          0  MISS:       6587  HIT %:          0  MISS %:        100   MPKI: 0.13174
LLC RFO       ACCESS:      89434  HIT:          0  MISS:      89434  HIT %:          0  MISS %:        100   MPKI: 1.78868
LLC PREFETCH  ACCESS:      82847  HIT:          0  MISS:      82847  HIT %:          0  MISS %:        100   MPKI: 1.65694
AGUS PREFETCH L1 MISS: 0
LLC WRITEBACK ACCESS:      89521  HIT:      89521  MISS:          0  HIT %:        100  MISS %:          0   MPKI: 0
LLC LOAD TRANSLATION ACCESS:        355  HIT:          0  MISS:        355  HIT %:          0  MISS %:        100   MPKI: 0.0071
LLC PREFETCH  REQUESTED:          0  ISSUED:          0  USEFUL:          0  USELESS:      83338
LLC USEFUL LOAD PREFETCHES:          0 PREFETCH ISSUED TO LOWER LEVEL:      82847  ACCURACY: 0
LLC TIMELY PREFETCHES:          0 LATE PREFETCHES: 0 DROPPED PREFETCHES: 0
LLC PREFETCHES SAME FILL-ORIGIN LEVEL: 0 DIFFERENT FILL-ORIGIN LEVEL: 0
LLC AVERAGE MISS LATENCY: 126.274 cycles
LLC RQ	ACCESS:      96376	FORWARD:          0	MERGED:          0	TO_CACHE:      96376
LLC WQ	ACCESS:      89521	FORWARD:          0	MERGED:          0	TO_CACHE:      89521
LLC PQ	ACCESS:      82847	FORWARD:          0	MERGED:          0	TO_CACHE:      82847

LLC Dense regions hint to LLC: 0

RAW hits: 0
Loads Generated: 10690511
Loads sent to L1D: 10690511
Stores Generated: 5723795
Stores sent to L1D: 5723795
Major fault: 0 Minor fault: 5612
Allocated PAGES: 5612
CPU 0 L1D nextline prefetcher final stats
 Action = 30 : 416200
 Action = 23 : 474488
 Action = 16 : 545815
 Action = 11 : 367593
 Action = 10 : 468347
 Action = 22 : 357927
 Action = 5 : 612326
 Action = 4 : 379653
 Action = 32 : 898086
 Action = -3 : 431704
 Action = 12 : 390832
 Action = -6 : 535257
 Action = 3 : 671306
 Action = 1 : 1065677
 Action = -1 : 555845
 Action = 0 : 4268741
---------------Prefetch degree counts-----------------------
 prefetch degree = 5 : 2538
 number of times low bandwidth is  11567896
number of times high bandwidth is 0

DRAM Statistics
 CHANNEL 0
 RQ ROW_BUFFER_HIT:      99689  ROW_BUFFER_MISS:      79534
 DBUS_CONGESTED:        139
 WQ ROW_BUFFER_HIT:      19499  ROW_BUFFER_MISS:      69869  FULL:          0

 AVG_CONGESTED_CYCLE: 4
 All warmup complete: 2
Channel 0 Bank busy for read cycles: 0
Channel 0 Bank busy for write cycles: 0
Channel 0
Rank 0
0banks busy for read cycles: 72367980
0banks busy for write cycles: 52771
1banks busy for read cycles: 11062592
1banks busy for write cycles: 7238804
2banks busy for read cycles: 1075317
2banks busy for write cycles: 574417
3banks busy for read cycles: 469108
3banks busy for write cycles: 337773
4banks busy for read cycles: 242904
4banks busy for write cycles: 223916
5banks busy for read cycles: 139937
5banks busy for write cycles: 162559
6banks busy for read cycles: 67572
6banks busy for write cycles: 116079
7banks busy for read cycles: 24651
7banks busy for write cycles: 74104
8banks busy for read cycles: 5719
8banks busy for write cycles: 55152

CPU 0 Branch Prediction Accuracy: 93.3866% MPKI: 15.1416 Average ROB Occupancy at Mispredict: 12.9433
Branch types
NOT_BRANCH: 38552411 77.1048%
BRANCH_DIRECT_JUMP: 0 0%
BRANCH_INDIRECT: 0 0%
BRANCH_CONDITIONAL: 11447591 22.8952%
BRANCH_DIRECT_CALL: 0 0%
BRANCH_INDIRECT_CALL: 0 0%
BRANCH_RETURN: 0 0%
BRANCH_OTHER: 0 0%

DRAM PAGES: 1048576
Allocated PAGES: 5612
