
*** ChampSim Multicore Out-of-Order Simulator ***

Warmup Instructions: 100000000
Simulation Instructions: 100000000
Number of CPUs: 1
LLC sets: 2048
LLC ways: 16
Off-chip DRAM Size: 4096 MB Channels: 1 Width: 64-bit Data Rate: 6400 MT/s
CPU 0 runs ../Ligra/ligra_BC.com-lj.ungraph.gcc_6.3.0_O3.drop_26750M.length_250M.champsimtrace.xz
.xz
CPU 0 Bimodal branch predictor
BTB has LRU replacement policy
ITLB has LRU replacement policy
DTLB has LRU replacement policy
STLB has LRU replacement policy
L1I has LRU replacement policy
CPU 0 L1D - Pythia Preftecher 
L1D has LRU replacement policy
--------- This is L2C prefetcher --------------
L2C has LRU replacement policy
LLC has LRU replacement policy
Heartbeat CPU 0 instructions: 10000003 cycles: 3333412 heartbeat IPC: 2.99993 cumulative IPC: 2.99993 (Simulation time: 0 hr 0 min 12 sec) 
Heartbeat CPU 0 instructions: 20000000 cycles: 6666744 heartbeat IPC: 3 cumulative IPC: 2.99997 (Simulation time: 0 hr 0 min 25 sec) 
Heartbeat CPU 0 instructions: 30000003 cycles: 9999732 heartbeat IPC: 3.00031 cumulative IPC: 3.00008 (Simulation time: 0 hr 0 min 38 sec) 
Heartbeat CPU 0 instructions: 40000003 cycles: 13331764 heartbeat IPC: 3.00117 cumulative IPC: 3.00035 (Simulation time: 0 hr 0 min 51 sec) 
Heartbeat CPU 0 instructions: 50000000 cycles: 16664008 heartbeat IPC: 3.00098 cumulative IPC: 3.00048 (Simulation time: 0 hr 1 min 3 sec) 
Heartbeat CPU 0 instructions: 60000000 cycles: 19996581 heartbeat IPC: 3.00068 cumulative IPC: 3.00051 (Simulation time: 0 hr 1 min 15 sec) 
Heartbeat CPU 0 instructions: 70000000 cycles: 23329121 heartbeat IPC: 3.00071 cumulative IPC: 3.00054 (Simulation time: 0 hr 1 min 26 sec) 
Heartbeat CPU 0 instructions: 80000001 cycles: 26661737 heartbeat IPC: 3.00065 cumulative IPC: 3.00055 (Simulation time: 0 hr 1 min 39 sec) 
Heartbeat CPU 0 instructions: 90000000 cycles: 29995072 heartbeat IPC: 3 cumulative IPC: 3.00049 (Simulation time: 0 hr 1 min 55 sec) 
Heartbeat CPU 0 instructions: 100000003 cycles: 33328404 heartbeat IPC: 3 cumulative IPC: 3.00044 (Simulation time: 0 hr 2 min 11 sec) 

Warmup complete CPU 0 instructions: 100000003 cycles: 33328404 (Simulation time: 0 hr 2 min 11 sec) 

Heartbeat CPU 0 instructions: 110000000 cycles: 62325505 heartbeat IPC: 0.344862 cumulative IPC: 0.344862 (Simulation time: 0 hr 2 min 47 sec) 
Heartbeat CPU 0 instructions: 120000003 cycles: 92771598 heartbeat IPC: 0.328449 cumulative IPC: 0.336456 (Simulation time: 0 hr 3 min 20 sec) 
Heartbeat CPU 0 instructions: 130000002 cycles: 126812973 heartbeat IPC: 0.29376 cumulative IPC: 0.320909 (Simulation time: 0 hr 3 min 54 sec) 
Heartbeat CPU 0 instructions: 140000001 cycles: 164677510 heartbeat IPC: 0.264099 cumulative IPC: 0.304532 (Simulation time: 0 hr 4 min 27 sec) 
Heartbeat CPU 0 instructions: 150000000 cycles: 207767308 heartbeat IPC: 0.232073 cumulative IPC: 0.286633 (Simulation time: 0 hr 5 min 3 sec) 
Heartbeat CPU 0 instructions: 160000003 cycles: 252112834 heartbeat IPC: 0.225502 cumulative IPC: 0.274243 (Simulation time: 0 hr 5 min 40 sec) 
Heartbeat CPU 0 instructions: 170000001 cycles: 299198621 heartbeat IPC: 0.212378 cumulative IPC: 0.263286 (Simulation time: 0 hr 6 min 19 sec) 
Heartbeat CPU 0 instructions: 180000000 cycles: 348075985 heartbeat IPC: 0.204594 cumulative IPC: 0.254172 (Simulation time: 0 hr 6 min 59 sec) 
Heartbeat CPU 0 instructions: 190000001 cycles: 400992403 heartbeat IPC: 0.188977 cumulative IPC: 0.244789 (Simulation time: 0 hr 7 min 39 sec) 
Heartbeat CPU 0 instructions: 200000001 cycles: 456137299 heartbeat IPC: 0.18134 cumulative IPC: 0.236513 (Simulation time: 0 hr 8 min 19 sec) 
Finished CPU 0 instructions: 100000002 cycles: 422808896 cumulative IPC: 0.236513 (Simulation time: 0 hr 8 min 19 sec) 

ChampSim completed all CPUs

Region of Interest Statistics

CPU 0 cumulative IPC: 0.236513 instructions: 100000002 cycles: 422808896
ITLB TOTAL     ACCESS:   17073012  HIT:   17073011  MISS:          1  HIT %:        100  MISS %: 5.8572e-06   MPKI: 1e-05
ITLB LOAD TRANSLATION ACCESS:   17073012  HIT:   17073011  MISS:          1  HIT %:        100  MISS %: 5.8572e-06   MPKI: 1e-05
ITLB PREFETCH  REQUESTED:          0  ISSUED:          0  USEFUL:          0  USELESS:          0
ITLB USEFUL LOAD PREFETCHES:          0 PREFETCH ISSUED TO LOWER LEVEL:          0  ACCURACY: -nan
ITLB TIMELY PREFETCHES:          0 LATE PREFETCHES: 0 DROPPED PREFETCHES: 0
ITLB PREFETCHES SAME FILL-ORIGIN LEVEL: 0 DIFFERENT FILL-ORIGIN LEVEL: 0
ITLB AVERAGE MISS LATENCY: 626 cycles
ITLB RQ	ACCESS:   19989168	FORWARD:          0	MERGED:    2916157	TO_CACHE:   17073011

DTLB TOTAL     ACCESS:   29922638  HIT:   28410722  MISS:    1511916  HIT %:    94.9473  MISS %:    5.05275   MPKI: 15.1192
DTLB LOAD TRANSLATION ACCESS:   29922638  HIT:   28410722  MISS:    1511916  HIT %:    94.9473  MISS %:    5.05275   MPKI: 15.1192
DTLB PREFETCH  REQUESTED:          0  ISSUED:          0  USEFUL:          0  USELESS:          0
DTLB USEFUL LOAD PREFETCHES:          0 PREFETCH ISSUED TO LOWER LEVEL:          0  ACCURACY: -nan
DTLB TIMELY PREFETCHES:          0 LATE PREFETCHES: 0 DROPPED PREFETCHES: 0
DTLB PREFETCHES SAME FILL-ORIGIN LEVEL: 0 DIFFERENT FILL-ORIGIN LEVEL: 0
DTLB AVERAGE MISS LATENCY: 23.88 cycles
DTLB RQ	ACCESS:   32293201	FORWARD:          0	MERGED:    2332770	TO_CACHE:   29960431

STLB TOTAL     ACCESS:    9093779  HIT:    8663575  MISS:     430204  HIT %:    95.2692  MISS %:    4.73075   MPKI: 4.30204
STLB LOAD TRANSLATION ACCESS:    1511917  HIT:    1081714  MISS:     430203  HIT %:    71.5459  MISS %:    28.4541   MPKI: 4.30203
STLB TRANSLATION FROM L1D PREFETCHER ACCESS:    7581862  HIT:    7581861  MISS:          1  HIT %:        100  MISS %: 1.31894e-05   MPKI: 1e-05
STLB PREFETCH  REQUESTED:          0  ISSUED:          0  USEFUL:          1  USELESS:          0
STLB USEFUL LOAD PREFETCHES:          1 PREFETCH ISSUED TO LOWER LEVEL:          0  ACCURACY: inf
STLB TIMELY PREFETCHES:          1 LATE PREFETCHES: 0 DROPPED PREFETCHES: 0
STLB PREFETCHES SAME FILL-ORIGIN LEVEL: 0 DIFFERENT FILL-ORIGIN LEVEL: 0
STLB AVERAGE MISS LATENCY: 51.3134 cycles
STLB RQ	ACCESS:   27758827	FORWARD:          0	MERGED:   18665048	TO_CACHE:    9093779

STLB Hit, L1D data hit: 0
STLB Hit, L2C data hit: 0
STLB Hit, LLC data hit: 0
STLB Hit, LLC data miss: 0
STLB STLB hints to L2: 0
L1D TOTAL     ACCESS:   54648642  HIT:   48340862  MISS:    6307780  HIT %:    88.4576  MISS %:    11.5424   MPKI: 63.0778
L1D LOAD      ACCESS:   22398038  HIT:   19690253  MISS:    2707785  HIT %:    87.9106  MISS %:    12.0894   MPKI: 27.0778
L1D RFO       ACCESS:    7123204  HIT:    6847540  MISS:     275664  HIT %:    96.1301  MISS %:    3.86994   MPKI: 2.75664
L1D PREFETCH  ACCESS:   25127400  HIT:   21803069  MISS:    3324331  HIT %:    86.7701  MISS %:    13.2299   MPKI: 33.2433
AGUS PREFETCH L1 MISS: 0
L1D PREFETCH  REQUESTED:   53970697  ISSUED:   53634435  USEFUL:     622742  USELESS:    2701680
L1D USEFUL LOAD PREFETCHES:     622742 PREFETCH ISSUED TO LOWER LEVEL:    3345192  ACCURACY: 18.616
L1D TIMELY PREFETCHES:     622742 LATE PREFETCHES: 20862 DROPPED PREFETCHES: 0
L1D PREFETCHES SAME FILL-ORIGIN LEVEL: 3345192 DIFFERENT FILL-ORIGIN LEVEL: 0
L1D AVERAGE MISS LATENCY: 187.157 cycles
L1D RQ	ACCESS:   32923428	FORWARD:          0	MERGED:    9956156	TO_CACHE:   22940038
L1D WQ	ACCESS:    9753420	FORWARD:      27333	MERGED:     400257	TO_CACHE:    9353163
L1D PQ	ACCESS:   27387525	FORWARD:          0	MERGED:    1140516	TO_CACHE:   26246910

L1D UNIQUE REGIONS ACCESSED: 0
L1D REGIONS CONFLICTS: 0
L1D Cross Page Prefetch Requests: 0
L1D Same Page Prefetch Requests: 58882089
L1D ROI Sum of L1D PQ occupancy: 394240104
L1D PREFETCHES PUSHED FROM L2C: 0
L1I TOTAL     ACCESS:   19989166  HIT:   19989142  MISS:         24  HIT %:    99.9999  MISS %: 0.000120065   MPKI: 0.00024
L1I LOAD      ACCESS:   19989166  HIT:   19989142  MISS:         24  HIT %:    99.9999  MISS %: 0.000120065   MPKI: 0.00024
L1I PREFETCH  REQUESTED:          0  ISSUED:          0  USEFUL:          0  USELESS:          0
L1I USEFUL LOAD PREFETCHES:          0 PREFETCH ISSUED TO LOWER LEVEL:          0  ACCURACY: -nan
L1I TIMELY PREFETCHES:          0 LATE PREFETCHES: 0 DROPPED PREFETCHES: 0
L1I PREFETCHES SAME FILL-ORIGIN LEVEL: 0 DIFFERENT FILL-ORIGIN LEVEL: 0
L1I AVERAGE MISS LATENCY: 209.833 cycles
L1I RQ	ACCESS:   28181271	FORWARD:          0	MERGED:    8192103	TO_CACHE:   19989168

BTB TOTAL     ACCESS:   16874710  HIT:   16874583  MISS:        127  HIT %:    99.9992  MISS %: 0.000752606   MPKI: 0.00127
BTB BRANCH_DIRECT_JUMP	ACCESS:     739824  HIT:     739798  MISS:         26
BTB BRANCH_INDIRECT	ACCESS:          0  HIT:          0  MISS:          0
BTB BRANCH_CONDITIONAL	ACCESS:   16134857  HIT:   16134775  MISS:         82
BTB BRANCH_DIRECT_CALL	ACCESS:         15  HIT:          5  MISS:         10
BTB BRANCH_INDIRECT_CALL	ACCESS:          0  HIT:          0  MISS:          0
BTB BRANCH_RETURN	ACCESS:         14  HIT:          5  MISS:          9
BTB BRANCH_OTHER ACCESS:          0  HIT:          0  MISS:          0

L2C TOTAL     ACCESS:    7204246  HIT:    1789114  MISS:    5415132  HIT %:    24.8342  MISS %:    75.1658   MPKI: 54.1513
L2C LOAD      ACCESS:    2686943  HIT:     327436  MISS:    2359507  HIT %:    12.1862  MISS %:    87.8138   MPKI: 23.5951
L2C DATA LOAD MPKI: 23.5948
L2C INSTRUCTION LOAD MPKI: 0.00024
L2C RFO       ACCESS:     275664  HIT:          3  MISS:     275661  HIT %: 0.00108828  MISS %:    99.9989   MPKI: 2.75661
L2C PREFETCH  ACCESS:    3345189  HIT:     676281  MISS:    2668908  HIT %:    20.2165  MISS %:    79.7835   MPKI: 26.6891
AGUS PREFETCH L1 MISS: 0
L2C DATA PREFETCH MPKI: 26.6891
L2C INSTRUCTION PREFETCH MPKI: 0
L2C WRITEBACK ACCESS:     466160  HIT:     466152  MISS:          8  HIT %:    99.9983  MISS %: 0.00171615   MPKI: 8e-05
L2C LOAD TRANSLATION ACCESS:     430289  HIT:     319242  MISS:     111047  HIT %:    74.1925  MISS %:    25.8075   MPKI: 1.11047
L2C TRANSLATION FROM L1D PREFETCHER ACCESS:          1  HIT:          0  MISS:          1  HIT %:          0  MISS %:        100   MPKI: 1e-05
L2C PREFETCH  REQUESTED:          0  ISSUED:          0  USEFUL:     119576  USELESS:    2551299
L2C USEFUL LOAD PREFETCHES:     119576 PREFETCH ISSUED TO LOWER LEVEL:    2668907  ACCURACY: 4.48034
L2C TIMELY PREFETCHES:     119576 LATE PREFETCHES: 0 DROPPED PREFETCHES: 0
L2C PREFETCHES SAME FILL-ORIGIN LEVEL: 0 DIFFERENT FILL-ORIGIN LEVEL: 0
L2C AVERAGE MISS LATENCY: 201.231 cycles
L2C RQ	ACCESS:    3392903	FORWARD:          0	MERGED:          0	TO_CACHE:    3392899
L2C WQ	ACCESS:     466160	FORWARD:          8	MERGED:          0	TO_CACHE:     466160
L2C PQ	ACCESS:    3345192	FORWARD:          0	MERGED:          0	TO_CACHE:    3345188

L2C Instructions Evicting Data 24
L2C Translations Evicting Data 108891
L2C Data Evicting Data 5195692
L2C Instructions Evicting Instructions 0
L2C Translations Evicting Instructions 0
L2C Data Evicting Instructions 24
L2C Instructions Evicting Translations 0
L2C Translations Evicting Translations 2157
L2C Data Evicting Translations 108336
L2C Dense regions hint from L2: 0
PSCL5 TOTAL     ACCESS:     430204  HIT:     430204  MISS:          0  HIT %:        100  MISS %:          0   MPKI: 0
PSCL5 LOAD TRANSLATION ACCESS:     430203  HIT:     430203  MISS:          0  HIT %:        100  MISS %:          0   MPKI: 0
PSCL5 TRANSLATION FROM L1D PREFETCHER ACCESS:          1  HIT:          1  MISS:          0  HIT %:        100  MISS %:          0   MPKI: 0
PSCL5 PREFETCH  REQUESTED:          0  ISSUED:          0  USEFUL:          0  USELESS:          0
PSCL5 USEFUL LOAD PREFETCHES:          0 PREFETCH ISSUED TO LOWER LEVEL:          0  ACCURACY: -nan
PSCL5 TIMELY PREFETCHES:          0 LATE PREFETCHES: 0 DROPPED PREFETCHES: 0
PSCL5 PREFETCHES SAME FILL-ORIGIN LEVEL: 0 DIFFERENT FILL-ORIGIN LEVEL: 0

PSCL4 TOTAL     ACCESS:     430204  HIT:     430204  MISS:          0  HIT %:        100  MISS %:          0   MPKI: 0
PSCL4 LOAD TRANSLATION ACCESS:     430203  HIT:     430203  MISS:          0  HIT %:        100  MISS %:          0   MPKI: 0
PSCL4 TRANSLATION FROM L1D PREFETCHER ACCESS:          1  HIT:          1  MISS:          0  HIT %:        100  MISS %:          0   MPKI: 0
PSCL4 PREFETCH  REQUESTED:          0  ISSUED:          0  USEFUL:          0  USELESS:          0
PSCL4 USEFUL LOAD PREFETCHES:          0 PREFETCH ISSUED TO LOWER LEVEL:          0  ACCURACY: -nan
PSCL4 TIMELY PREFETCHES:          0 LATE PREFETCHES: 0 DROPPED PREFETCHES: 0
PSCL4 PREFETCHES SAME FILL-ORIGIN LEVEL: 0 DIFFERENT FILL-ORIGIN LEVEL: 0

PSCL3 TOTAL     ACCESS:     430204  HIT:     430204  MISS:          0  HIT %:        100  MISS %:          0   MPKI: 0
PSCL3 LOAD TRANSLATION ACCESS:     430203  HIT:     430203  MISS:          0  HIT %:        100  MISS %:          0   MPKI: 0
PSCL3 TRANSLATION FROM L1D PREFETCHER ACCESS:          1  HIT:          1  MISS:          0  HIT %:        100  MISS %:          0   MPKI: 0
PSCL3 PREFETCH  REQUESTED:          0  ISSUED:          0  USEFUL:          0  USELESS:          0
PSCL3 USEFUL LOAD PREFETCHES:          0 PREFETCH ISSUED TO LOWER LEVEL:          0  ACCURACY: -nan
PSCL3 TIMELY PREFETCHES:          0 LATE PREFETCHES: 0 DROPPED PREFETCHES: 0
PSCL3 PREFETCHES SAME FILL-ORIGIN LEVEL: 0 DIFFERENT FILL-ORIGIN LEVEL: 0

PSCL2 TOTAL     ACCESS:     430204  HIT:     430020  MISS:        184  HIT %:    99.9572  MISS %:  0.0427704   MPKI: 0.00184
PSCL2 LOAD TRANSLATION ACCESS:     430203  HIT:     430019  MISS:        184  HIT %:    99.9572  MISS %:  0.0427705   MPKI: 0.00184
PSCL2 TRANSLATION FROM L1D PREFETCHER ACCESS:          1  HIT:          1  MISS:          0  HIT %:        100  MISS %:          0   MPKI: 0
PSCL2 PREFETCH  REQUESTED:          0  ISSUED:          0  USEFUL:          0  USELESS:          0
PSCL2 USEFUL LOAD PREFETCHES:          0 PREFETCH ISSUED TO LOWER LEVEL:          0  ACCURACY: -nan
PSCL2 TIMELY PREFETCHES:          0 LATE PREFETCHES: 0 DROPPED PREFETCHES: 0
PSCL2 PREFETCHES SAME FILL-ORIGIN LEVEL: 0 DIFFERENT FILL-ORIGIN LEVEL: 0

LLC TOTAL     ACCESS:    5883586  HIT:    1273151  MISS:    4610435  HIT %:     21.639  MISS %:     78.361   MPKI: 46.1043
LLC LOAD      ACCESS:    2359506  HIT:     336102  MISS:    2023404  HIT %:    14.2446  MISS %:    85.7554   MPKI: 20.234
LLC RFO       ACCESS:     275661  HIT:          3  MISS:     275658  HIT %: 0.00108829  MISS %:    99.9989   MPKI: 2.75658
LLC PREFETCH  ACCESS:    2668908  HIT:     381325  MISS:    2287583  HIT %:    14.2877  MISS %:    85.7123   MPKI: 22.8758
AGUS PREFETCH L1 MISS: 0
LLC WRITEBACK ACCESS:     468463  HIT:     468448  MISS:         15  HIT %:    99.9968  MISS %: 0.00320196   MPKI: 0.00015
LLC LOAD TRANSLATION ACCESS:     111047  HIT:      87273  MISS:      23774  HIT %:     78.591  MISS %:     21.409   MPKI: 0.23774
LLC TRANSLATION FROM L1D PREFETCHER ACCESS:          1  HIT:          0  MISS:          1  HIT %:          0  MISS %:        100   MPKI: 1e-05
LLC PREFETCH  REQUESTED:          0  ISSUED:          0  USEFUL:     105771  USELESS:    2184149
LLC USEFUL LOAD PREFETCHES:     105771 PREFETCH ISSUED TO LOWER LEVEL:    2287583  ACCURACY: 4.6237
LLC TIMELY PREFETCHES:     105771 LATE PREFETCHES: 0 DROPPED PREFETCHES: 0
LLC PREFETCHES SAME FILL-ORIGIN LEVEL: 0 DIFFERENT FILL-ORIGIN LEVEL: 0
LLC AVERAGE MISS LATENCY: 200.539 cycles
LLC RQ	ACCESS:    2746218	FORWARD:          0	MERGED:          0	TO_CACHE:    2746217
LLC WQ	ACCESS:     468463	FORWARD:          1	MERGED:          0	TO_CACHE:     468463
LLC PQ	ACCESS:    2668907	FORWARD:          0	MERGED:          0	TO_CACHE:    2668907

LLC Dense regions hint to LLC: 0

RAW hits: 2569033
Loads Generated: 35492463
Loads sent to L1D: 32923428
Stores Generated: 9753417
Stores sent to L1D: 9753420
Major fault: 0 Minor fault: 66170
Allocated PAGES: 66170
CPU 0 L1D nextline prefetcher final stats
 Action = 30 : 558074
 Action = 23 : 405353
 Action = 16 : 353518
 Action = 11 : 321412
 Action = 10 : 315433
 Action = 22 : 391288
 Action = 5 : 321892
 Action = 4 : 328931
 Action = 32 : 797799
 Action = -3 : 360078
 Action = 12 : 8585130
 Action = -6 : 5353797
 Action = 3 : 468225
 Action = 1 : 793093
 Action = -1 : 287057
 Action = 0 : 17223082
---------------Prefetch degree counts-----------------------
 prefetch degree = 5 : 7523
 number of times low bandwidth is  23624665
number of times high bandwidth is 10401908
55 : 17329472
54 : 17094880
53 : 17327424
52 : 17322304
51 : 17254560
43 : 17465568
42 : 17303040
41 : 17458400
103 : 17335136
39 : 17349920
102 : 17372736
38 : 17503520
37 : 17521792
99 : 17527424
111 : 17778848
34 : 17902144
31 : 17427488
93 : 17550816
92 : 17248160
28 : 17161472
89 : 17548640
88 : 17416960
87 : 17422048
85 : 17304192
79 : 17369408
78 : 17426752
75 : 17323968
74 : 17350400
8 : 17404064
7 : 17374400
6 : 58798176
66 : 16594208
15 : 17148128
65 : 17239616
64 : 16886496
61 : 17458688
21 : 17428320
59 : 17346208
58 : 17462016
80 : 17343584
50 : 17290624
57 : 17660352
77 : 17372224
117 : 25958560
20 : 17612384
29 : 17227424
72 : 16970496
90 : 17721632
62 : 17443968
83 : 17298592
68 : 17237216
71 : 17065088
127 : 19224448
48 : 17456992
124 : 18934976
45 : 17692096
126 : 18767488
47 : 17425056
56 : 17715392
110 : 17699808
9 : 17185760
98 : 17422816
19 : 17366208
32 : 17652896
30 : 17227008
109 : 17823136
95 : 17448256
16 : 17346752
35 : 17702144
114 : 18454496
27 : 17123424
106 : 17680992
96 : 17260416
17 : 17152192
97 : 17334752
18 : 17339264
49 : 17205952
12 : 17648896
91 : 17297888
100 : 17332416
26 : 17450848
105 : 17798816
76 : 17170048
113 : 18208320
2 : 63397184
81 : 17472384
1 : -1935209088
40 : 17521504
119 : 17465504
125 : 18532608
46 : 17390624
14 : 17196384
5 : 17358304
84 : 17246560
116 : 19478976
122 : 17523232
115 : 18752384
36 : 17444928
4 : 18461248
0 : 53235712
118 : 20925504
11 : 17522400
10 : 17350272
120 : 17492480
23 : 17398048
108 : 17385024
121 : 17424352
123 : 17640384
44 : 17717408
86 : 17316544
3 : 19522336
82 : 17339744
104 : 17523520
25 : 17477472
101 : 17354112
22 : 17260224
13 : 17758272
107 : 17497824
24 : 17391488
94 : 17444640
112 : 17966400
33 : 17557248
73 : 17150112
70 : 17126528
67 : 17219904
63 : 17175360
69 : 16729216
60 : 17420288

DRAM Statistics
 CHANNEL 0
 RQ ROW_BUFFER_HIT:    1561235  ROW_BUFFER_MISS:    3049172
 DBUS_CONGESTED:        669
 WQ ROW_BUFFER_HIT:     110416  ROW_BUFFER_MISS:     365720  FULL:          0

 AVG_CONGESTED_CYCLE: 4
 All warmup complete: 2
Channel 0 Bank busy for read cycles: 0
Channel 0 Bank busy for write cycles: 0
Channel 0
Rank 0
0banks busy for read cycles: 139566607
0banks busy for write cycles: 138362
1banks busy for read cycles: 99730048
1banks busy for write cycles: 22255188
2banks busy for read cycles: 74172376
2banks busy for write cycles: 6548782
3banks busy for read cycles: 27722366
3banks busy for write cycles: 2306277
4banks busy for read cycles: 21241064
4banks busy for write cycles: 954510
5banks busy for read cycles: 9384086
5banks busy for write cycles: 432714
6banks busy for read cycles: 6929086
6banks busy for write cycles: 240746
7banks busy for read cycles: 3025064
7banks busy for write cycles: 471970
8banks busy for read cycles: 1416199
8banks busy for write cycles: 6273452

CPU 0 Branch Prediction Accuracy: 86.8059% MPKI: 28.8391 Average ROB Occupancy at Mispredict: 21.0949
Branch types
NOT_BRANCH: 78142516 78.1425%
BRANCH_DIRECT_JUMP: 739824 0.739824%
BRANCH_INDIRECT: 0 0%
BRANCH_CONDITIONAL: 21117665 21.1177%
BRANCH_DIRECT_CALL: 15 1.5e-05%
BRANCH_INDIRECT_CALL: 0 0%
BRANCH_RETURN: 14 1.4e-05%
BRANCH_OTHER: 0 0%

DRAM PAGES: 1048576
Allocated PAGES: 66170
