
*** ChampSim Multicore Out-of-Order Simulator ***

Warmup Instructions: 100000000
Simulation Instructions: 100000000
Number of CPUs: 1
LLC sets: 2048
LLC ways: 16
Off-chip DRAM Size: 4096 MB Channels: 1 Width: 64-bit Data Rate: 6400 MT/s
CPU 0 runs ../Ligra/ligra_BC.com-lj.ungraph.gcc_6.3.0_O3.drop_15500M.length_250M.champsimtrace.xz
.xz
CPU 0 Bimodal branch predictor
BTB has LRU replacement policy
ITLB has LRU replacement policy
DTLB has LRU replacement policy
STLB has LRU replacement policy
L1I has LRU replacement policy
CPU 0 L1D - Pythia Preftecher 
L1D has LRU replacement policy
--------- This is L2C prefetcher --------------
L2C has LRU replacement policy
LLC has LRU replacement policy
Heartbeat CPU 0 instructions: 10000003 cycles: 2666961 heartbeat IPC: 3.74959 cumulative IPC: 3.74959 (Simulation time: 0 hr 0 min 10 sec) 
Heartbeat CPU 0 instructions: 20000000 cycles: 5333626 heartbeat IPC: 3.75 cumulative IPC: 3.74979 (Simulation time: 0 hr 0 min 19 sec) 
Heartbeat CPU 0 instructions: 30000003 cycles: 8000294 heartbeat IPC: 3.75 cumulative IPC: 3.74986 (Simulation time: 0 hr 0 min 29 sec) 
Heartbeat CPU 0 instructions: 40000003 cycles: 10666957 heartbeat IPC: 3.75001 cumulative IPC: 3.7499 (Simulation time: 0 hr 0 min 39 sec) 
Heartbeat CPU 0 instructions: 50000001 cycles: 13333623 heartbeat IPC: 3.75 cumulative IPC: 3.74992 (Simulation time: 0 hr 0 min 50 sec) 
Heartbeat CPU 0 instructions: 60000003 cycles: 16000291 heartbeat IPC: 3.75 cumulative IPC: 3.74993 (Simulation time: 0 hr 0 min 59 sec) 
Heartbeat CPU 0 instructions: 70000002 cycles: 18940052 heartbeat IPC: 3.40164 cumulative IPC: 3.69587 (Simulation time: 0 hr 1 min 7 sec) 
Heartbeat CPU 0 instructions: 80000003 cycles: 21462376 heartbeat IPC: 3.9646 cumulative IPC: 3.72745 (Simulation time: 0 hr 1 min 20 sec) 
Heartbeat CPU 0 instructions: 90000000 cycles: 23985677 heartbeat IPC: 3.96306 cumulative IPC: 3.75224 (Simulation time: 0 hr 1 min 33 sec) 
Heartbeat CPU 0 instructions: 100000002 cycles: 26508246 heartbeat IPC: 3.96421 cumulative IPC: 3.77241 (Simulation time: 0 hr 1 min 45 sec) 

Warmup complete CPU 0 instructions: 100000002 cycles: 26508246 (Simulation time: 0 hr 1 min 45 sec) 

Heartbeat CPU 0 instructions: 110000000 cycles: 36977533 heartbeat IPC: 0.955175 cumulative IPC: 0.955175 (Simulation time: 0 hr 2 min 0 sec) 
Heartbeat CPU 0 instructions: 120000001 cycles: 49471913 heartbeat IPC: 0.80036 cumulative IPC: 0.870941 (Simulation time: 0 hr 2 min 15 sec) 
Heartbeat CPU 0 instructions: 130000000 cycles: 60173636 heartbeat IPC: 0.934429 cumulative IPC: 0.891123 (Simulation time: 0 hr 2 min 30 sec) 
Heartbeat CPU 0 instructions: 140000003 cycles: 71813110 heartbeat IPC: 0.859146 cumulative IPC: 0.882907 (Simulation time: 0 hr 2 min 46 sec) 
Heartbeat CPU 0 instructions: 150000001 cycles: 83583875 heartbeat IPC: 0.849562 cumulative IPC: 0.876031 (Simulation time: 0 hr 3 min 3 sec) 
Heartbeat CPU 0 instructions: 160000003 cycles: 95123874 heartbeat IPC: 0.866551 cumulative IPC: 0.874436 (Simulation time: 0 hr 3 min 19 sec) 
Heartbeat CPU 0 instructions: 170000000 cycles: 107173338 heartbeat IPC: 0.829912 cumulative IPC: 0.867786 (Simulation time: 0 hr 3 min 34 sec) 
Heartbeat CPU 0 instructions: 180000003 cycles: 118208139 heartbeat IPC: 0.906224 cumulative IPC: 0.872411 (Simulation time: 0 hr 3 min 49 sec) 
Heartbeat CPU 0 instructions: 190000001 cycles: 129314149 heartbeat IPC: 0.900413 cumulative IPC: 0.875436 (Simulation time: 0 hr 4 min 5 sec) 
Heartbeat CPU 0 instructions: 200000002 cycles: 140569481 heartbeat IPC: 0.888468 cumulative IPC: 0.876722 (Simulation time: 0 hr 4 min 23 sec) 
Finished CPU 0 instructions: 100000000 cycles: 114061235 cumulative IPC: 0.876722 (Simulation time: 0 hr 4 min 23 sec) 

ChampSim completed all CPUs

Region of Interest Statistics

CPU 0 cumulative IPC: 0.876722 instructions: 100000000 cycles: 114061235
ITLB TOTAL     ACCESS:   11615421  HIT:   11615421  MISS:          0  HIT %:        100  MISS %:          0   MPKI: 0
ITLB LOAD TRANSLATION ACCESS:   11615421  HIT:   11615421  MISS:          0  HIT %:        100  MISS %:          0   MPKI: 0
ITLB PREFETCH  REQUESTED:          0  ISSUED:          0  USEFUL:          0  USELESS:          0
ITLB USEFUL LOAD PREFETCHES:          0 PREFETCH ISSUED TO LOWER LEVEL:          0  ACCURACY: -nan
ITLB TIMELY PREFETCHES:          0 LATE PREFETCHES: 0 DROPPED PREFETCHES: 0
ITLB PREFETCHES SAME FILL-ORIGIN LEVEL: 0 DIFFERENT FILL-ORIGIN LEVEL: 0
ITLB AVERAGE MISS LATENCY: -nan cycles
ITLB RQ	ACCESS:   22039418	FORWARD:          0	MERGED:   10423998	TO_CACHE:   11615420

DTLB TOTAL     ACCESS:   16704937  HIT:   16671437  MISS:      33500  HIT %:    99.7995  MISS %:    0.20054   MPKI: 0.335
DTLB LOAD TRANSLATION ACCESS:   16704937  HIT:   16671437  MISS:      33500  HIT %:    99.7995  MISS %:    0.20054   MPKI: 0.335
DTLB PREFETCH  REQUESTED:          0  ISSUED:          0  USEFUL:          0  USELESS:          0
DTLB USEFUL LOAD PREFETCHES:          0 PREFETCH ISSUED TO LOWER LEVEL:          0  ACCURACY: -nan
DTLB TIMELY PREFETCHES:          0 LATE PREFETCHES: 0 DROPPED PREFETCHES: 0
DTLB PREFETCHES SAME FILL-ORIGIN LEVEL: 0 DIFFERENT FILL-ORIGIN LEVEL: 0
DTLB AVERAGE MISS LATENCY: 147.901 cycles
DTLB RQ	ACCESS:   27544539	FORWARD:          0	MERGED:   10727049	TO_CACHE:   16817490

STLB TOTAL     ACCESS:    5180462  HIT:    5146962  MISS:      33500  HIT %:    99.3533  MISS %:    0.64666   MPKI: 0.335
STLB LOAD TRANSLATION ACCESS:      33500  HIT:          0  MISS:      33500  HIT %:          0  MISS %:        100   MPKI: 0.335
STLB TRANSLATION FROM L1D PREFETCHER ACCESS:    5146962  HIT:    5146962  MISS:          0  HIT %:        100  MISS %:          0   MPKI: 0
STLB PREFETCH  REQUESTED:          0  ISSUED:          0  USEFUL:          0  USELESS:          0
STLB USEFUL LOAD PREFETCHES:          0 PREFETCH ISSUED TO LOWER LEVEL:          0  ACCURACY: -nan
STLB TIMELY PREFETCHES:          0 LATE PREFETCHES: 0 DROPPED PREFETCHES: 0
STLB PREFETCHES SAME FILL-ORIGIN LEVEL: 0 DIFFERENT FILL-ORIGIN LEVEL: 0
STLB AVERAGE MISS LATENCY: 138.898 cycles
STLB RQ	ACCESS:   24544126	FORWARD:          0	MERGED:   19363664	TO_CACHE:    5180462

STLB Hit, L1D data hit: 0
STLB Hit, L2C data hit: 0
STLB Hit, LLC data hit: 0
STLB Hit, LLC data miss: 0
STLB STLB hints to L2: 0
L1D TOTAL     ACCESS:   26843514  HIT:   24689163  MISS:    2154351  HIT %:    91.9744  MISS %:    8.02559   MPKI: 21.5435
L1D LOAD      ACCESS:    6012530  HIT:    5972511  MISS:      40019  HIT %:    99.3344  MISS %:   0.665593   MPKI: 0.40019
L1D RFO       ACCESS:    1524864  HIT:     185294  MISS:    1339570  HIT %:    12.1515  MISS %:    87.8485   MPKI: 13.3957
L1D PREFETCH  ACCESS:   19306120  HIT:   18531358  MISS:     774762  HIT %:     95.987  MISS %:    4.01304   MPKI: 7.74762
AGUS PREFETCH L1 MISS: 0
L1D PREFETCH  REQUESTED:   51345543  ISSUED:   51325646  USEFUL:     764486  USELESS:      10278
L1D USEFUL LOAD PREFETCHES:     764486 PREFETCH ISSUED TO LOWER LEVEL:     777561  ACCURACY: 98.3185
L1D TIMELY PREFETCHES:     764486 LATE PREFETCHES: 2796 DROPPED PREFETCHES: 0
L1D PREFETCHES SAME FILL-ORIGIN LEVEL: 777561 DIFFERENT FILL-ORIGIN LEVEL: 0
L1D AVERAGE MISS LATENCY: 262.192 cycles
L1D RQ	ACCESS:   11604247	FORWARD:          0	MERGED:    5492910	TO_CACHE:    6111337
L1D WQ	ACCESS:   21433202	FORWARD:          0	MERGED:          0	TO_CACHE:   21433202
L1D PQ	ACCESS:   26815020	FORWARD:          0	MERGED:    2304394	TO_CACHE:   24510626

L1D UNIQUE REGIONS ACCESSED: 0
L1D REGIONS CONFLICTS: 0
L1D Cross Page Prefetch Requests: 0
L1D Same Page Prefetch Requests: 61828313
L1D ROI Sum of L1D PQ occupancy: 343385038
L1D PREFETCHES PUSHED FROM L2C: 0
L1I TOTAL     ACCESS:   22039418  HIT:   22039418  MISS:          0  HIT %:        100  MISS %:          0   MPKI: 0
L1I LOAD      ACCESS:   22039418  HIT:   22039418  MISS:          0  HIT %:        100  MISS %:          0   MPKI: 0
L1I PREFETCH  REQUESTED:          0  ISSUED:          0  USEFUL:          0  USELESS:          0
L1I USEFUL LOAD PREFETCHES:          0 PREFETCH ISSUED TO LOWER LEVEL:          0  ACCURACY: -nan
L1I TIMELY PREFETCHES:          0 LATE PREFETCHES: 0 DROPPED PREFETCHES: 0
L1I PREFETCHES SAME FILL-ORIGIN LEVEL: 0 DIFFERENT FILL-ORIGIN LEVEL: 0
L1I AVERAGE MISS LATENCY: -nan cycles
L1I RQ	ACCESS:   32497883	FORWARD:          0	MERGED:   10458465	TO_CACHE:   22039418

BTB TOTAL     ACCESS:   11331626  HIT:   11331623  MISS:          3  HIT %:        100  MISS %: 2.64746e-05   MPKI: 3e-05
BTB BRANCH_DIRECT_JUMP	ACCESS:          0  HIT:          0  MISS:          0
BTB BRANCH_INDIRECT	ACCESS:          0  HIT:          0  MISS:          0
BTB BRANCH_CONDITIONAL	ACCESS:   11331626  HIT:   11331623  MISS:          3
BTB BRANCH_DIRECT_CALL	ACCESS:          0  HIT:          0  MISS:          0
BTB BRANCH_INDIRECT_CALL	ACCESS:          0  HIT:          0  MISS:          0
BTB BRANCH_RETURN	ACCESS:          0  HIT:          0  MISS:          0
BTB BRANCH_OTHER ACCESS:          0  HIT:          0  MISS:          0

L2C TOTAL     ACCESS:    3527445  HIT:    1378827  MISS:    2148618  HIT %:    39.0885  MISS %:    60.9115   MPKI: 21.4862
L2C LOAD      ACCESS:      37223  HIT:        358  MISS:      36865  HIT %:   0.961771  MISS %:    99.0382   MPKI: 0.36865
L2C DATA LOAD MPKI: 0.36865
L2C INSTRUCTION LOAD MPKI: 0
L2C RFO       ACCESS:    1339570  HIT:          0  MISS:    1339570  HIT %:          0  MISS %:        100   MPKI: 13.3957
L2C PREFETCH  ACCESS:     777558  HIT:       9738  MISS:     767820  HIT %:    1.25238  MISS %:    98.7476   MPKI: 7.6782
AGUS PREFETCH L1 MISS: 0
L2C DATA PREFETCH MPKI: 7.6782
L2C INSTRUCTION PREFETCH MPKI: 0
L2C WRITEBACK ACCESS:    1339587  HIT:    1339587  MISS:          0  HIT %:        100  MISS %:          0   MPKI: 0
L2C LOAD TRANSLATION ACCESS:      33507  HIT:      29144  MISS:       4363  HIT %:    86.9788  MISS %:    13.0212   MPKI: 0.04363
L2C PREFETCH  REQUESTED:          0  ISSUED:          0  USEFUL:        358  USELESS:     767072
L2C USEFUL LOAD PREFETCHES:        358 PREFETCH ISSUED TO LOWER LEVEL:     767823  ACCURACY: 0.0466253
L2C TIMELY PREFETCHES:        358 LATE PREFETCHES: 0 DROPPED PREFETCHES: 0
L2C PREFETCHES SAME FILL-ORIGIN LEVEL: 0 DIFFERENT FILL-ORIGIN LEVEL: 0
L2C AVERAGE MISS LATENCY: 248.16 cycles
L2C RQ	ACCESS:    1410305	FORWARD:          0	MERGED:          0	TO_CACHE:    1410305
L2C WQ	ACCESS:    1339587	FORWARD:          0	MERGED:          0	TO_CACHE:    1339587
L2C PQ	ACCESS:     777561	FORWARD:          0	MERGED:          0	TO_CACHE:     777561

L2C Instructions Evicting Data 0
L2C Translations Evicting Data 4361
L2C Data Evicting Data 2139895
L2C Instructions Evicting Instructions 0
L2C Translations Evicting Instructions 0
L2C Data Evicting Instructions 0
L2C Instructions Evicting Translations 0
L2C Translations Evicting Translations 2
L2C Data Evicting Translations 4360
L2C Dense regions hint from L2: 0
PSCL5 TOTAL     ACCESS:      33500  HIT:      33500  MISS:          0  HIT %:        100  MISS %:          0   MPKI: 0
PSCL5 LOAD TRANSLATION ACCESS:      33500  HIT:      33500  MISS:          0  HIT %:        100  MISS %:          0   MPKI: 0
PSCL5 PREFETCH  REQUESTED:          0  ISSUED:          0  USEFUL:          0  USELESS:          0
PSCL5 USEFUL LOAD PREFETCHES:          0 PREFETCH ISSUED TO LOWER LEVEL:          0  ACCURACY: -nan
PSCL5 TIMELY PREFETCHES:          0 LATE PREFETCHES: 0 DROPPED PREFETCHES: 0
PSCL5 PREFETCHES SAME FILL-ORIGIN LEVEL: 0 DIFFERENT FILL-ORIGIN LEVEL: 0

PSCL4 TOTAL     ACCESS:      33500  HIT:      33500  MISS:          0  HIT %:        100  MISS %:          0   MPKI: 0
PSCL4 LOAD TRANSLATION ACCESS:      33500  HIT:      33500  MISS:          0  HIT %:        100  MISS %:          0   MPKI: 0
PSCL4 PREFETCH  REQUESTED:          0  ISSUED:          0  USEFUL:          0  USELESS:          0
PSCL4 USEFUL LOAD PREFETCHES:          0 PREFETCH ISSUED TO LOWER LEVEL:          0  ACCURACY: -nan
PSCL4 TIMELY PREFETCHES:          0 LATE PREFETCHES: 0 DROPPED PREFETCHES: 0
PSCL4 PREFETCHES SAME FILL-ORIGIN LEVEL: 0 DIFFERENT FILL-ORIGIN LEVEL: 0

PSCL3 TOTAL     ACCESS:      33500  HIT:      33500  MISS:          0  HIT %:        100  MISS %:          0   MPKI: 0
PSCL3 LOAD TRANSLATION ACCESS:      33500  HIT:      33500  MISS:          0  HIT %:        100  MISS %:          0   MPKI: 0
PSCL3 PREFETCH  REQUESTED:          0  ISSUED:          0  USEFUL:          0  USELESS:          0
PSCL3 USEFUL LOAD PREFETCHES:          0 PREFETCH ISSUED TO LOWER LEVEL:          0  ACCURACY: -nan
PSCL3 TIMELY PREFETCHES:          0 LATE PREFETCHES: 0 DROPPED PREFETCHES: 0
PSCL3 PREFETCHES SAME FILL-ORIGIN LEVEL: 0 DIFFERENT FILL-ORIGIN LEVEL: 0

PSCL2 TOTAL     ACCESS:      33500  HIT:      33432  MISS:         68  HIT %:     99.797  MISS %:   0.202985   MPKI: 0.00068
PSCL2 LOAD TRANSLATION ACCESS:      33500  HIT:      33432  MISS:         68  HIT %:     99.797  MISS %:   0.202985   MPKI: 0.00068
PSCL2 PREFETCH  REQUESTED:          0  ISSUED:          0  USEFUL:          0  USELESS:          0
PSCL2 USEFUL LOAD PREFETCHES:          0 PREFETCH ISSUED TO LOWER LEVEL:          0  ACCURACY: -nan
PSCL2 TIMELY PREFETCHES:          0 LATE PREFETCHES: 0 DROPPED PREFETCHES: 0
PSCL2 PREFETCHES SAME FILL-ORIGIN LEVEL: 0 DIFFERENT FILL-ORIGIN LEVEL: 0

LLC TOTAL     ACCESS:    3488584  HIT:    1340261  MISS:    2148323  HIT %:    38.4185  MISS %:    61.5815   MPKI: 21.4832
LLC LOAD      ACCESS:      36865  HIT:         19  MISS:      36846  HIT %:  0.0515394  MISS %:    99.9485   MPKI: 0.36846
LLC RFO       ACCESS:    1339570  HIT:          0  MISS:    1339570  HIT %:          0  MISS %:        100   MPKI: 13.3957
LLC PREFETCH  ACCESS:     767820  HIT:        172  MISS:     767648  HIT %:  0.0224011  MISS %:    99.9776   MPKI: 7.67648
AGUS PREFETCH L1 MISS: 0
LLC WRITEBACK ACCESS:    1339966  HIT:    1339966  MISS:          0  HIT %:        100  MISS %:          0   MPKI: 0
LLC LOAD TRANSLATION ACCESS:       4363  HIT:        104  MISS:       4259  HIT %:    2.38368  MISS %:    97.6163   MPKI: 0.04259
LLC PREFETCH  REQUESTED:          0  ISSUED:          0  USEFUL:         19  USELESS:     765777
LLC USEFUL LOAD PREFETCHES:         19 PREFETCH ISSUED TO LOWER LEVEL:     767651  ACCURACY: 0.00247508
LLC TIMELY PREFETCHES:         19 LATE PREFETCHES: 0 DROPPED PREFETCHES: 0
LLC PREFETCHES SAME FILL-ORIGIN LEVEL: 0 DIFFERENT FILL-ORIGIN LEVEL: 0
LLC AVERAGE MISS LATENCY: 216.975 cycles
LLC RQ	ACCESS:    1380803	FORWARD:          0	MERGED:          0	TO_CACHE:    1380803
LLC WQ	ACCESS:    1339966	FORWARD:          0	MERGED:          0	TO_CACHE:    1339966
LLC PQ	ACCESS:     767823	FORWARD:          0	MERGED:          0	TO_CACHE:     767823

LLC Dense regions hint to LLC: 0

RAW hits: 0
Loads Generated: 11604247
Loads sent to L1D: 11604247
Stores Generated: 21433198
Stores sent to L1D: 21433202
Major fault: 0 Minor fault: 74109
Allocated PAGES: 74109
CPU 0 L1D nextline prefetcher final stats
 Action = 30 : 209623
 Action = 23 : 122340
 Action = 16 : 267619
 Action = 11 : 176311
 Action = 10 : 385779
 Action = 22 : 266234
 Action = 5 : 344111
 Action = 32 : 1073407
 Action = -3 : 155037
 Action = 12 : 135359
 Action = -6 : 463190
 Action = 3 : 216351
 Action = 0 : 1360012
 Action = -1 : 368738
 Action = 1 : 10670521
 Action = 4 : 150540
---------------Prefetch degree counts-----------------------
 prefetch degree = 5 : 3339
 number of times low bandwidth is  9805313
number of times high bandwidth is 5845428

DRAM Statistics
 CHANNEL 0
 RQ ROW_BUFFER_HIT:     646589  ROW_BUFFER_MISS:    1501734
 DBUS_CONGESTED:       1371
 WQ ROW_BUFFER_HIT:     306098  ROW_BUFFER_MISS:    1034922  FULL:          0

 AVG_CONGESTED_CYCLE: 5
 All warmup complete: 2
Channel 0 Bank busy for read cycles: 0
Channel 0 Bank busy for write cycles: 0
Channel 0
Rank 0
0banks busy for read cycles: 147698
0banks busy for write cycles: 9
1banks busy for read cycles: 10816223
1banks busy for write cycles: 205954
2banks busy for read cycles: 24088688
2banks busy for write cycles: 204221
3banks busy for read cycles: 17964095
3banks busy for write cycles: 204702
4banks busy for read cycles: 10034476
4banks busy for write cycles: 204766
5banks busy for read cycles: 7550595
5banks busy for write cycles: 204486
6banks busy for read cycles: 6794922
6banks busy for write cycles: 216955
7banks busy for read cycles: 3591418
7banks busy for write cycles: 1650448
8banks busy for read cycles: 1432002
8banks busy for write cycles: 28749578

CPU 0 Branch Prediction Accuracy: 97.1357% MPKI: 3.24589 Average ROB Occupancy at Mispredict: 23.1101
Branch types
NOT_BRANCH: 88667289 88.6673%
BRANCH_DIRECT_JUMP: 0 0%
BRANCH_INDIRECT: 0 0%
BRANCH_CONDITIONAL: 11332373 11.3324%
BRANCH_DIRECT_CALL: 0 0%
BRANCH_INDIRECT_CALL: 0 0%
BRANCH_RETURN: 0 0%
BRANCH_OTHER: 0 0%

DRAM PAGES: 1048576
Allocated PAGES: 74109
