
*** ChampSim Multicore Out-of-Order Simulator ***

Warmup Instructions: 100000000
Simulation Instructions: 100000000
Number of CPUs: 1
LLC sets: 2048
LLC ways: 16
Off-chip DRAM Size: 4096 MB Channels: 1 Width: 64-bit Data Rate: 6400 MT/s
CPU 0 runs ../Ligra/ligra_BC.com-lj.ungraph.gcc_6.3.0_O3.drop_15500M.length_250M.champsimtrace.xz
.xz
CPU 0 Bimodal branch predictor
BTB has LRU replacement policy
ITLB has LRU replacement policy
DTLB has LRU replacement policy
STLB has LRU replacement policy
L1I has LRU replacement policy
CPU 0 L1D - Pythia Preftecher 
L1D has LRU replacement policy
--------- This is L2C prefetcher --------------
L2C has LRU replacement policy
LLC has LRU replacement policy
Heartbeat CPU 0 instructions: 10000003 cycles: 2666966 heartbeat IPC: 3.74958 cumulative IPC: 3.74958 (Simulation time: 0 hr 0 min 12 sec) 
Heartbeat CPU 0 instructions: 20000000 cycles: 5333631 heartbeat IPC: 3.75 cumulative IPC: 3.74979 (Simulation time: 0 hr 0 min 24 sec) 
Heartbeat CPU 0 instructions: 30000003 cycles: 8000296 heartbeat IPC: 3.75 cumulative IPC: 3.74986 (Simulation time: 0 hr 0 min 38 sec) 
Heartbeat CPU 0 instructions: 40000003 cycles: 10666962 heartbeat IPC: 3.75 cumulative IPC: 3.7499 (Simulation time: 0 hr 0 min 52 sec) 
Heartbeat CPU 0 instructions: 50000001 cycles: 13333628 heartbeat IPC: 3.75 cumulative IPC: 3.74992 (Simulation time: 0 hr 1 min 8 sec) 
Heartbeat CPU 0 instructions: 60000003 cycles: 16000296 heartbeat IPC: 3.75 cumulative IPC: 3.74993 (Simulation time: 0 hr 1 min 23 sec) 
Heartbeat CPU 0 instructions: 70000002 cycles: 18939733 heartbeat IPC: 3.40201 cumulative IPC: 3.69593 (Simulation time: 0 hr 1 min 33 sec) 
Heartbeat CPU 0 instructions: 80000003 cycles: 21462075 heartbeat IPC: 3.96457 cumulative IPC: 3.72751 (Simulation time: 0 hr 1 min 48 sec) 
Heartbeat CPU 0 instructions: 90000000 cycles: 23985011 heartbeat IPC: 3.96363 cumulative IPC: 3.75234 (Simulation time: 0 hr 2 min 2 sec) 
Heartbeat CPU 0 instructions: 100000002 cycles: 26507347 heartbeat IPC: 3.96458 cumulative IPC: 3.77254 (Simulation time: 0 hr 2 min 17 sec) 

Warmup complete CPU 0 instructions: 100000002 cycles: 26507347 (Simulation time: 0 hr 2 min 17 sec) 

Heartbeat CPU 0 instructions: 110000000 cycles: 37004311 heartbeat IPC: 0.952656 cumulative IPC: 0.952656 (Simulation time: 0 hr 2 min 34 sec) 
Heartbeat CPU 0 instructions: 120000001 cycles: 47654237 heartbeat IPC: 0.938974 cumulative IPC: 0.945765 (Simulation time: 0 hr 2 min 51 sec) 
Heartbeat CPU 0 instructions: 130000000 cycles: 58428547 heartbeat IPC: 0.928134 cumulative IPC: 0.939814 (Simulation time: 0 hr 3 min 8 sec) 
Heartbeat CPU 0 instructions: 140000003 cycles: 69539553 heartbeat IPC: 0.900009 cumulative IPC: 0.929536 (Simulation time: 0 hr 3 min 27 sec) 
Heartbeat CPU 0 instructions: 150000001 cycles: 81686384 heartbeat IPC: 0.82326 cumulative IPC: 0.906141 (Simulation time: 0 hr 3 min 45 sec) 
Heartbeat CPU 0 instructions: 160000003 cycles: 93445645 heartbeat IPC: 0.850394 cumulative IPC: 0.896348 (Simulation time: 0 hr 4 min 3 sec) 
Heartbeat CPU 0 instructions: 170000000 cycles: 105724045 heartbeat IPC: 0.814438 cumulative IPC: 0.883652 (Simulation time: 0 hr 4 min 22 sec) 
Heartbeat CPU 0 instructions: 180000003 cycles: 116772980 heartbeat IPC: 0.905065 cumulative IPC: 0.886273 (Simulation time: 0 hr 4 min 39 sec) 
Heartbeat CPU 0 instructions: 190000001 cycles: 127968396 heartbeat IPC: 0.893223 cumulative IPC: 0.88704 (Simulation time: 0 hr 4 min 57 sec) 
Heartbeat CPU 0 instructions: 200000002 cycles: 139295310 heartbeat IPC: 0.882853 cumulative IPC: 0.886619 (Simulation time: 0 hr 5 min 15 sec) 
Finished CPU 0 instructions: 100000000 cycles: 112787963 cumulative IPC: 0.886619 (Simulation time: 0 hr 5 min 15 sec) 

ChampSim completed all CPUs

Region of Interest Statistics

CPU 0 cumulative IPC: 0.886619 instructions: 100000000 cycles: 112787963
ITLB TOTAL     ACCESS:   11597381  HIT:   11597381  MISS:          0  HIT %:        100  MISS %:          0   MPKI: 0
ITLB LOAD TRANSLATION ACCESS:   11597381  HIT:   11597381  MISS:          0  HIT %:        100  MISS %:          0   MPKI: 0
ITLB PREFETCH  REQUESTED:          0  ISSUED:          0  USEFUL:          0  USELESS:          0
ITLB USEFUL LOAD PREFETCHES:          0 PREFETCH ISSUED TO LOWER LEVEL:          0  ACCURACY: -nan
ITLB TIMELY PREFETCHES:          0 LATE PREFETCHES: 0 DROPPED PREFETCHES: 0
ITLB PREFETCHES SAME FILL-ORIGIN LEVEL: 0 DIFFERENT FILL-ORIGIN LEVEL: 0
ITLB AVERAGE MISS LATENCY: -nan cycles
ITLB RQ	ACCESS:   22029961	FORWARD:          0	MERGED:   10432581	TO_CACHE:   11597380

DTLB TOTAL     ACCESS:   16763351  HIT:   16729851  MISS:      33500  HIT %:    99.8002  MISS %:   0.199841   MPKI: 0.335
DTLB LOAD TRANSLATION ACCESS:   16763351  HIT:   16729851  MISS:      33500  HIT %:    99.8002  MISS %:   0.199841   MPKI: 0.335
DTLB PREFETCH  REQUESTED:          0  ISSUED:          0  USEFUL:          0  USELESS:          0
DTLB USEFUL LOAD PREFETCHES:          0 PREFETCH ISSUED TO LOWER LEVEL:          0  ACCURACY: -nan
DTLB TIMELY PREFETCHES:          0 LATE PREFETCHES: 0 DROPPED PREFETCHES: 0
DTLB PREFETCHES SAME FILL-ORIGIN LEVEL: 0 DIFFERENT FILL-ORIGIN LEVEL: 0
DTLB AVERAGE MISS LATENCY: 146.552 cycles
DTLB RQ	ACCESS:   27601433	FORWARD:          0	MERGED:   10726414	TO_CACHE:   16875019

STLB TOTAL     ACCESS:    5138024  HIT:    5104524  MISS:      33500  HIT %:     99.348  MISS %:   0.652002   MPKI: 0.335
STLB LOAD TRANSLATION ACCESS:      33500  HIT:          0  MISS:      33500  HIT %:          0  MISS %:        100   MPKI: 0.335
STLB TRANSLATION FROM L1D PREFETCHER ACCESS:    5104524  HIT:    5104524  MISS:          0  HIT %:        100  MISS %:          0   MPKI: 0
STLB PREFETCH  REQUESTED:          0  ISSUED:          0  USEFUL:          0  USELESS:          0
STLB USEFUL LOAD PREFETCHES:          0 PREFETCH ISSUED TO LOWER LEVEL:          0  ACCURACY: -nan
STLB TIMELY PREFETCHES:          0 LATE PREFETCHES: 0 DROPPED PREFETCHES: 0
STLB PREFETCHES SAME FILL-ORIGIN LEVEL: 0 DIFFERENT FILL-ORIGIN LEVEL: 0
STLB AVERAGE MISS LATENCY: 137.549 cycles
STLB RQ	ACCESS:   23296787	FORWARD:          0	MERGED:   18158763	TO_CACHE:    5138024

STLB Hit, L1D data hit: 0
STLB Hit, L2C data hit: 0
STLB Hit, LLC data hit: 0
STLB Hit, LLC data miss: 0
STLB STLB hints to L2: 0
L1D TOTAL     ACCESS:   28227598  HIT:   26042805  MISS:    2184793  HIT %:    92.2601  MISS %:    7.73992   MPKI: 21.8479
L1D LOAD      ACCESS:    6112719  HIT:    6085760  MISS:      26959  HIT %:     99.559  MISS %:   0.441031   MPKI: 0.26959
L1D RFO       ACCESS:    1488888  HIT:     149316  MISS:    1339572  HIT %:    10.0287  MISS %:    89.9713   MPKI: 13.3957
L1D PREFETCH  ACCESS:   20625991  HIT:   19807729  MISS:     818262  HIT %:    96.0329  MISS %:    3.96714   MPKI: 8.18262
AGUS PREFETCH L1 MISS: 0
L1D PREFETCH  REQUESTED:   48952931  ISSUED:   48842345  USEFUL:     777546  USELESS:      40739
L1D USEFUL LOAD PREFETCHES:     777546 PREFETCH ISSUED TO LOWER LEVEL:     823232  ACCURACY: 94.4504
L1D TIMELY PREFETCHES:     777546 LATE PREFETCHES: 4970 DROPPED PREFETCHES: 0
L1D PREFETCHES SAME FILL-ORIGIN LEVEL: 823232 DIFFERENT FILL-ORIGIN LEVEL: 0
L1D AVERAGE MISS LATENCY: 272.934 cycles
L1D RQ	ACCESS:   11604247	FORWARD:          0	MERGED:    5436016	TO_CACHE:    6168231
L1D WQ	ACCESS:   21433202	FORWARD:          0	MERGED:          0	TO_CACHE:   21433202
L1D PQ	ACCESS:   25579058	FORWARD:          0	MERGED:    2315771	TO_CACHE:   23263287

L1D UNIQUE REGIONS ACCESSED: 0
L1D REGIONS CONFLICTS: 0
L1D Cross Page Prefetch Requests: 0
L1D Same Page Prefetch Requests: 66427146
L1D ROI Sum of L1D PQ occupancy: 342013849
L1D PREFETCHES PUSHED FROM L2C: 0
L1I TOTAL     ACCESS:   22029961  HIT:   22029961  MISS:          0  HIT %:        100  MISS %:          0   MPKI: 0
L1I LOAD      ACCESS:   22029961  HIT:   22029961  MISS:          0  HIT %:        100  MISS %:          0   MPKI: 0
L1I PREFETCH  REQUESTED:          0  ISSUED:          0  USEFUL:          0  USELESS:          0
L1I USEFUL LOAD PREFETCHES:          0 PREFETCH ISSUED TO LOWER LEVEL:          0  ACCURACY: -nan
L1I TIMELY PREFETCHES:          0 LATE PREFETCHES: 0 DROPPED PREFETCHES: 0
L1I PREFETCHES SAME FILL-ORIGIN LEVEL: 0 DIFFERENT FILL-ORIGIN LEVEL: 0
L1I AVERAGE MISS LATENCY: -nan cycles
L1I RQ	ACCESS:   32496361	FORWARD:          0	MERGED:   10466400	TO_CACHE:   22029961

BTB TOTAL     ACCESS:   11331626  HIT:   11331623  MISS:          3  HIT %:        100  MISS %: 2.64746e-05   MPKI: 3e-05
BTB BRANCH_DIRECT_JUMP	ACCESS:          0  HIT:          0  MISS:          0
BTB BRANCH_INDIRECT	ACCESS:          0  HIT:          0  MISS:          0
BTB BRANCH_CONDITIONAL	ACCESS:   11331626  HIT:   11331623  MISS:          3
BTB BRANCH_DIRECT_CALL	ACCESS:          0  HIT:          0  MISS:          0
BTB BRANCH_INDIRECT_CALL	ACCESS:          0  HIT:          0  MISS:          0
BTB BRANCH_RETURN	ACCESS:          0  HIT:          0  MISS:          0
BTB BRANCH_OTHER ACCESS:          0  HIT:          0  MISS:          0

L2C TOTAL     ACCESS:    3557854  HIT:    1409251  MISS:    2148603  HIT %:    39.6096  MISS %:    60.3904   MPKI: 21.486
L2C LOAD      ACCESS:      21989  HIT:       1174  MISS:      20815  HIT %:    5.33903  MISS %:     94.661   MPKI: 0.20815
L2C DATA LOAD MPKI: 0.20815
L2C INSTRUCTION LOAD MPKI: 0
L2C RFO       ACCESS:    1339572  HIT:          0  MISS:    1339572  HIT %:          0  MISS %:        100   MPKI: 13.3957
L2C PREFETCH  ACCESS:     823232  HIT:      39374  MISS:     783858  HIT %:    4.78286  MISS %:    95.2171   MPKI: 7.83858
AGUS PREFETCH L1 MISS: 0
L2C DATA PREFETCH MPKI: 7.83858
L2C INSTRUCTION PREFETCH MPKI: 0
L2C WRITEBACK ACCESS:    1339554  HIT:    1339554  MISS:          0  HIT %:        100  MISS %:          0   MPKI: 0
L2C LOAD TRANSLATION ACCESS:      33507  HIT:      29149  MISS:       4358  HIT %:    86.9938  MISS %:    13.0062   MPKI: 0.04358
L2C PREFETCH  REQUESTED:          0  ISSUED:          0  USEFUL:       1173  USELESS:     782266
L2C USEFUL LOAD PREFETCHES:       1173 PREFETCH ISSUED TO LOWER LEVEL:     783858  ACCURACY: 0.149644
L2C TIMELY PREFETCHES:       1173 LATE PREFETCHES: 0 DROPPED PREFETCHES: 0
L2C PREFETCHES SAME FILL-ORIGIN LEVEL: 0 DIFFERENT FILL-ORIGIN LEVEL: 0
L2C AVERAGE MISS LATENCY: 262.527 cycles
L2C RQ	ACCESS:    1395071	FORWARD:          0	MERGED:          0	TO_CACHE:    1395071
L2C WQ	ACCESS:    1339554	FORWARD:          0	MERGED:          0	TO_CACHE:    1339554
L2C PQ	ACCESS:     823232	FORWARD:          0	MERGED:          0	TO_CACHE:     823232

L2C Instructions Evicting Data 0
L2C Translations Evicting Data 4354
L2C Data Evicting Data 2139891
L2C Instructions Evicting Instructions 0
L2C Translations Evicting Instructions 0
L2C Data Evicting Instructions 0
L2C Instructions Evicting Translations 0
L2C Translations Evicting Translations 4
L2C Data Evicting Translations 4354
L2C Dense regions hint from L2: 0
PSCL5 TOTAL     ACCESS:      33500  HIT:      33500  MISS:          0  HIT %:        100  MISS %:          0   MPKI: 0
PSCL5 LOAD TRANSLATION ACCESS:      33500  HIT:      33500  MISS:          0  HIT %:        100  MISS %:          0   MPKI: 0
PSCL5 PREFETCH  REQUESTED:          0  ISSUED:          0  USEFUL:          0  USELESS:          0
PSCL5 USEFUL LOAD PREFETCHES:          0 PREFETCH ISSUED TO LOWER LEVEL:          0  ACCURACY: -nan
PSCL5 TIMELY PREFETCHES:          0 LATE PREFETCHES: 0 DROPPED PREFETCHES: 0
PSCL5 PREFETCHES SAME FILL-ORIGIN LEVEL: 0 DIFFERENT FILL-ORIGIN LEVEL: 0

PSCL4 TOTAL     ACCESS:      33500  HIT:      33500  MISS:          0  HIT %:        100  MISS %:          0   MPKI: 0
PSCL4 LOAD TRANSLATION ACCESS:      33500  HIT:      33500  MISS:          0  HIT %:        100  MISS %:          0   MPKI: 0
PSCL4 PREFETCH  REQUESTED:          0  ISSUED:          0  USEFUL:          0  USELESS:          0
PSCL4 USEFUL LOAD PREFETCHES:          0 PREFETCH ISSUED TO LOWER LEVEL:          0  ACCURACY: -nan
PSCL4 TIMELY PREFETCHES:          0 LATE PREFETCHES: 0 DROPPED PREFETCHES: 0
PSCL4 PREFETCHES SAME FILL-ORIGIN LEVEL: 0 DIFFERENT FILL-ORIGIN LEVEL: 0

PSCL3 TOTAL     ACCESS:      33500  HIT:      33500  MISS:          0  HIT %:        100  MISS %:          0   MPKI: 0
PSCL3 LOAD TRANSLATION ACCESS:      33500  HIT:      33500  MISS:          0  HIT %:        100  MISS %:          0   MPKI: 0
PSCL3 PREFETCH  REQUESTED:          0  ISSUED:          0  USEFUL:          0  USELESS:          0
PSCL3 USEFUL LOAD PREFETCHES:          0 PREFETCH ISSUED TO LOWER LEVEL:          0  ACCURACY: -nan
PSCL3 TIMELY PREFETCHES:          0 LATE PREFETCHES: 0 DROPPED PREFETCHES: 0
PSCL3 PREFETCHES SAME FILL-ORIGIN LEVEL: 0 DIFFERENT FILL-ORIGIN LEVEL: 0

PSCL2 TOTAL     ACCESS:      33500  HIT:      33432  MISS:         68  HIT %:     99.797  MISS %:   0.202985   MPKI: 0.00068
PSCL2 LOAD TRANSLATION ACCESS:      33500  HIT:      33432  MISS:         68  HIT %:     99.797  MISS %:   0.202985   MPKI: 0.00068
PSCL2 PREFETCH  REQUESTED:          0  ISSUED:          0  USEFUL:          0  USELESS:          0
PSCL2 USEFUL LOAD PREFETCHES:          0 PREFETCH ISSUED TO LOWER LEVEL:          0  ACCURACY: -nan
PSCL2 TIMELY PREFETCHES:          0 LATE PREFETCHES: 0 DROPPED PREFETCHES: 0
PSCL2 PREFETCHES SAME FILL-ORIGIN LEVEL: 0 DIFFERENT FILL-ORIGIN LEVEL: 0

LLC TOTAL     ACCESS:    3488629  HIT:    1340274  MISS:    2148355  HIT %:    38.4184  MISS %:    61.5816   MPKI: 21.4836
LLC LOAD      ACCESS:      20815  HIT:          1  MISS:      20814  HIT %: 0.00480423  MISS %:    99.9952   MPKI: 0.20814
LLC RFO       ACCESS:    1339573  HIT:          0  MISS:    1339573  HIT %:          0  MISS %:        100   MPKI: 13.3957
LLC PREFETCH  ACCESS:     783858  HIT:        152  MISS:     783706  HIT %:  0.0193913  MISS %:    99.9806   MPKI: 7.83706
AGUS PREFETCH L1 MISS: 0
LLC WRITEBACK ACCESS:    1340025  HIT:    1340025  MISS:          0  HIT %:        100  MISS %:          0   MPKI: 0
LLC LOAD TRANSLATION ACCESS:       4358  HIT:         96  MISS:       4262  HIT %:    2.20285  MISS %:    97.7972   MPKI: 0.04262
LLC PREFETCH  REQUESTED:          0  ISSUED:          0  USEFUL:          1  USELESS:     782310
LLC USEFUL LOAD PREFETCHES:          1 PREFETCH ISSUED TO LOWER LEVEL:     783706  ACCURACY: 0.000127599
LLC TIMELY PREFETCHES:          1 LATE PREFETCHES: 0 DROPPED PREFETCHES: 0
LLC PREFETCHES SAME FILL-ORIGIN LEVEL: 0 DIFFERENT FILL-ORIGIN LEVEL: 0
LLC AVERAGE MISS LATENCY: 231.524 cycles
LLC RQ	ACCESS:    1364748	FORWARD:          0	MERGED:          0	TO_CACHE:    1364748
LLC WQ	ACCESS:    1340025	FORWARD:          0	MERGED:          0	TO_CACHE:    1340025
LLC PQ	ACCESS:     783858	FORWARD:          0	MERGED:          0	TO_CACHE:     783858

LLC Dense regions hint to LLC: 0

RAW hits: 0
Loads Generated: 11604247
Loads sent to L1D: 11604247
Stores Generated: 21433198
Stores sent to L1D: 21433202
Major fault: 0 Minor fault: 74109
Allocated PAGES: 74109
CPU 0 L1D nextline prefetcher final stats
 Action = 30 : 249585
 Action = 23 : 183287
 Action = 16 : 152356
 Action = 11 : 139380
 Action = 10 : 136015
 Action = 22 : 175011
 Action = 5 : 127208
 Action = 32 : 370683
 Action = -3 : 127434
 Action = 12 : 139792
 Action = -6 : 886981
 Action = 3 : 124295
 Action = 0 : 1267247
 Action = -1 : 120443
 Action = 1 : 12103463
 Action = 4 : 125033
---------------Prefetch degree counts-----------------------
 prefetch degree = 5 : 3352
 number of times low bandwidth is  10266834
number of times high bandwidth is 5628558
16 : 779680
112 : 761440
65 : 783360
72 : 799936
58 : 782688
82 : 778880
114 : 780480
39 : 784384
48 : 773696
83 : 770880
79 : 793888
37 : 743360
34 : 750560
17 : 806080
19 : 786976
71 : 801856
59 : 763968
67 : 783904
69 : 778688
32 : 771904
24 : 780928
35 : 768416
111 : 778496
33 : 770144
57 : 779200
21 : 780416
73 : 780864
110 : 786272
18 : 780096
3 : 782624
62 : 787392
36 : 764480
20 : 779616
61 : 788288
91 : 770976
70 : 788832
38 : 774112
127 : 778464
60 : 777280
63 : 790976
81 : 795840
23 : 774176
47 : 784896
113 : 800640
0 : 2156672
68 : 810016
49 : 787392
64 : 778080
74 : 794304
31 : 771744
26 : 770464
105 : 788576
101 : 768992
22 : 767872
93 : 784032
14 : 792512
42 : 753728
121 : 786304
5 : 781792
84 : 776480
104 : 796384
25 : 766880
9 : 795648
88 : 771840
8 : 800224
87 : 785408
122 : 798432
43 : 778464
51 : 777664
125 : 808064
46 : 779104
2 : 111815648
40 : 792736
119 : 790560
90 : 784224
11 : 782240
97 : 779904
117 : 792000
80 : 779328
1 : 1891107072
66 : 801280
103 : 784960
92 : 771968
13 : 772864
102 : 780480
89 : 772864
10 : 782944
126 : 778560
15 : 781920
94 : 771008
41 : 776096
120 : 783712
4 : 786848
115 : 794400
50 : 791168
99 : 788544
52 : 785440
27 : 762688
106 : 774656
124 : 779648
45 : 779648
6 : 793920
85 : 786880
78 : 783680
100 : 781088
28 : 775936
107 : 793696
123 : 776576
44 : 759776
7 : 799072
86 : 770368
53 : 786912
12 : 789568
95 : 779744
118 : 794080
77 : 801408
54 : 790560
29 : 781728
108 : 802304
96 : 782912
98 : 769440
76 : 797760
30 : 742464
109 : 770976
55 : 776288
75 : 789280
116 : 785280
56 : 777056

DRAM Statistics
 CHANNEL 0
 RQ ROW_BUFFER_HIT:     690679  ROW_BUFFER_MISS:    1457676
 DBUS_CONGESTED:       1633
 WQ ROW_BUFFER_HIT:     329273  ROW_BUFFER_MISS:    1011843  FULL:          0

 AVG_CONGESTED_CYCLE: 5
 All warmup complete: 2
Channel 0 Bank busy for read cycles: 0
Channel 0 Bank busy for write cycles: 0
Channel 0
Rank 0
0banks busy for read cycles: 309607
0banks busy for write cycles: 385
1banks busy for read cycles: 13004401
1banks busy for write cycles: 257291
2banks busy for read cycles: 26681680
2banks busy for write cycles: 233782
3banks busy for read cycles: 13034894
3banks busy for write cycles: 222271
4banks busy for read cycles: 8901359
4banks busy for write cycles: 223043
5banks busy for read cycles: 7373311
5banks busy for write cycles: 224301
6banks busy for read cycles: 6569881
6banks busy for write cycles: 242187
7banks busy for read cycles: 4012051
7banks busy for write cycles: 1656057
8banks busy for read cycles: 2218468
8banks busy for write cycles: 27622995

CPU 0 Branch Prediction Accuracy: 97.1357% MPKI: 3.24589 Average ROB Occupancy at Mispredict: 21.0324
Branch types
NOT_BRANCH: 88667289 88.6673%
BRANCH_DIRECT_JUMP: 0 0%
BRANCH_INDIRECT: 0 0%
BRANCH_CONDITIONAL: 11332373 11.3324%
BRANCH_DIRECT_CALL: 0 0%
BRANCH_INDIRECT_CALL: 0 0%
BRANCH_RETURN: 0 0%
BRANCH_OTHER: 0 0%

DRAM PAGES: 1048576
Allocated PAGES: 74109
