
*** ChampSim Multicore Out-of-Order Simulator ***

Warmup Instructions: 50000000
Simulation Instructions: 50000000
Number of CPUs: 1
LLC sets: 2048
LLC ways: 16
Off-chip DRAM Size: 4096 MB Channels: 1 Width: 64-bit Data Rate: 6400 MT/s
CPU 0 runs ../Ligra/ligra_BFSCC.com-lj.ungraph.gcc_6.3.0_O3.drop_3500M.length_250M.champsimtrace.xz
.xz
CPU 0 Bimodal branch predictor
BTB has LRU replacement policy
ITLB has LRU replacement policy
DTLB has LRU replacement policy
STLB has LRU replacement policy
L1I has LRU replacement policy
CPU 0 L1D - Pythia Preftecher 
L1D has LRU replacement policy
--------- This is L2C prefetcher --------------
L2C has LRU replacement policy
LLC has LRU replacement policy
Heartbeat CPU 0 instructions: 10000002 cycles: 3333345 heartbeat IPC: 2.99999 cumulative IPC: 2.99999 (Simulation time: 0 hr 0 min 10 sec) 
Heartbeat CPU 0 instructions: 20000000 cycles: 6666677 heartbeat IPC: 3 cumulative IPC: 3 (Simulation time: 0 hr 0 min 20 sec) 
Heartbeat CPU 0 instructions: 30000001 cycles: 10000011 heartbeat IPC: 3 cumulative IPC: 3 (Simulation time: 0 hr 0 min 30 sec) 
Heartbeat CPU 0 instructions: 40000001 cycles: 13333345 heartbeat IPC: 3 cumulative IPC: 3 (Simulation time: 0 hr 0 min 39 sec) 
Heartbeat CPU 0 instructions: 50000001 cycles: 16666678 heartbeat IPC: 3 cumulative IPC: 3 (Simulation time: 0 hr 0 min 49 sec) 

Warmup complete CPU 0 instructions: 50000001 cycles: 16666678 (Simulation time: 0 hr 0 min 49 sec) 

Heartbeat CPU 0 instructions: 60000000 cycles: 35713931 heartbeat IPC: 0.52501 cumulative IPC: 0.52501 (Simulation time: 0 hr 1 min 5 sec) 
Heartbeat CPU 0 instructions: 70000000 cycles: 54478148 heartbeat IPC: 0.532929 cumulative IPC: 0.52894 (Simulation time: 0 hr 1 min 21 sec) 
Heartbeat CPU 0 instructions: 80000000 cycles: 73205566 heartbeat IPC: 0.533976 cumulative IPC: 0.530608 (Simulation time: 0 hr 1 min 36 sec) 
Heartbeat CPU 0 instructions: 90000002 cycles: 91942849 heartbeat IPC: 0.533695 cumulative IPC: 0.531377 (Simulation time: 0 hr 1 min 52 sec) 
Heartbeat CPU 0 instructions: 100000001 cycles: 110632794 heartbeat IPC: 0.535047 cumulative IPC: 0.532107 (Simulation time: 0 hr 2 min 8 sec) 
Finished CPU 0 instructions: 50000000 cycles: 93966116 cumulative IPC: 0.532107 (Simulation time: 0 hr 2 min 8 sec) 

ChampSim completed all CPUs

Region of Interest Statistics

CPU 0 cumulative IPC: 0.532107 instructions: 50000000 cycles: 93966116
ITLB TOTAL     ACCESS:    7995032  HIT:    7995032  MISS:          0  HIT %:        100  MISS %:          0   MPKI: 0
ITLB LOAD TRANSLATION ACCESS:    7995032  HIT:    7995032  MISS:          0  HIT %:        100  MISS %:          0   MPKI: 0
ITLB PREFETCH  REQUESTED:          0  ISSUED:          0  USEFUL:          0  USELESS:          0
ITLB USEFUL LOAD PREFETCHES:          0 PREFETCH ISSUED TO LOWER LEVEL:          0  ACCURACY: -nan
ITLB TIMELY PREFETCHES:          0 LATE PREFETCHES: 0 DROPPED PREFETCHES: 0
ITLB PREFETCHES SAME FILL-ORIGIN LEVEL: 0 DIFFERENT FILL-ORIGIN LEVEL: 0
ITLB AVERAGE MISS LATENCY: -nan cycles
ITLB RQ	ACCESS:    7995033	FORWARD:          0	MERGED:          0	TO_CACHE:    7995033

DTLB TOTAL     ACCESS:   10972862  HIT:   10970067  MISS:       2795  HIT %:    99.9745  MISS %:  0.0254719   MPKI: 0.0559
DTLB LOAD TRANSLATION ACCESS:   10972862  HIT:   10970067  MISS:       2795  HIT %:    99.9745  MISS %:  0.0254719   MPKI: 0.0559
DTLB PREFETCH  REQUESTED:          0  ISSUED:          0  USEFUL:          0  USELESS:          0
DTLB USEFUL LOAD PREFETCHES:          0 PREFETCH ISSUED TO LOWER LEVEL:          0  ACCURACY: -nan
DTLB TIMELY PREFETCHES:          0 LATE PREFETCHES: 0 DROPPED PREFETCHES: 0
DTLB PREFETCHES SAME FILL-ORIGIN LEVEL: 0 DIFFERENT FILL-ORIGIN LEVEL: 0
DTLB AVERAGE MISS LATENCY: 145.159 cycles
DTLB RQ	ACCESS:   11011180	FORWARD:          0	MERGED:      35000	TO_CACHE:   10976180

STLB TOTAL     ACCESS:    2443149  HIT:    2440354  MISS:       2795  HIT %:    99.8856  MISS %:   0.114402   MPKI: 0.0559
STLB LOAD TRANSLATION ACCESS:       2795  HIT:          0  MISS:       2795  HIT %:          0  MISS %:        100   MPKI: 0.0559
STLB TRANSLATION FROM L1D PREFETCHER ACCESS:    2440354  HIT:    2440354  MISS:          0  HIT %:        100  MISS %:          0   MPKI: 0
STLB PREFETCH  REQUESTED:          0  ISSUED:          0  USEFUL:          0  USELESS:          0
STLB USEFUL LOAD PREFETCHES:          0 PREFETCH ISSUED TO LOWER LEVEL:          0  ACCURACY: -nan
STLB TIMELY PREFETCHES:          0 LATE PREFETCHES: 0 DROPPED PREFETCHES: 0
STLB PREFETCHES SAME FILL-ORIGIN LEVEL: 0 DIFFERENT FILL-ORIGIN LEVEL: 0
STLB AVERAGE MISS LATENCY: 136.159 cycles
STLB RQ	ACCESS:    9782558	FORWARD:          0	MERGED:    7339409	TO_CACHE:    2443149

STLB Hit, L1D data hit: 0
STLB Hit, L2C data hit: 0
STLB Hit, LLC data hit: 0
STLB Hit, LLC data miss: 0
STLB STLB hints to L2: 0
L1D TOTAL     ACCESS:   19830227  HIT:   19651336  MISS:     178891  HIT %:    99.0979  MISS %:   0.902113   MPKI: 3.57782
L1D LOAD      ACCESS:    5278638  HIT:    5274300  MISS:       4338  HIT %:    99.9178  MISS %:  0.0821803   MPKI: 0.08676
L1D RFO       ACCESS:    4853917  HIT:    4764483  MISS:      89434  HIT %:    98.1575  MISS %:    1.84251   MPKI: 1.78868
L1D PREFETCH  ACCESS:    9697672  HIT:    9612553  MISS:      85119  HIT %:    99.1223  MISS %:   0.877726   MPKI: 1.70238
AGUS PREFETCH L1 MISS: 0
L1D PREFETCH  REQUESTED:   24461778  ISSUED:   24461563  USEFUL:      85096  USELESS:          0
L1D USEFUL LOAD PREFETCHES:      85096 PREFETCH ISSUED TO LOWER LEVEL:      85202  ACCURACY: 99.8756
L1D TIMELY PREFETCHES:      85096 LATE PREFETCHES: 79 DROPPED PREFETCHES: 0
L1D PREFETCHES SAME FILL-ORIGIN LEVEL: 85202 DIFFERENT FILL-ORIGIN LEVEL: 0
L1D AVERAGE MISS LATENCY: 171.678 cycles
L1D RQ	ACCESS:   10690511	FORWARD:          0	MERGED:    5403126	TO_CACHE:    5287385
L1D WQ	ACCESS:    5723795	FORWARD:          0	MERGED:          0	TO_CACHE:    5723795
L1D PQ	ACCESS:   14681800	FORWARD:          0	MERGED:    4902037	TO_CACHE:    9779763

L1D UNIQUE REGIONS ACCESSED: 0
L1D REGIONS CONFLICTS: 0
L1D Cross Page Prefetch Requests: 0
L1D Same Page Prefetch Requests: 31930234
L1D ROI Sum of L1D PQ occupancy: 133884412
L1D PREFETCHES PUSHED FROM L2C: 0
L1I TOTAL     ACCESS:    7995032  HIT:    7995032  MISS:          0  HIT %:        100  MISS %:          0   MPKI: 0
L1I LOAD      ACCESS:    7995032  HIT:    7995032  MISS:          0  HIT %:        100  MISS %:          0   MPKI: 0
L1I PREFETCH  REQUESTED:          0  ISSUED:          0  USEFUL:          0  USELESS:          0
L1I USEFUL LOAD PREFETCHES:          0 PREFETCH ISSUED TO LOWER LEVEL:          0  ACCURACY: -nan
L1I TIMELY PREFETCHES:          0 LATE PREFETCHES: 0 DROPPED PREFETCHES: 0
L1I PREFETCHES SAME FILL-ORIGIN LEVEL: 0 DIFFERENT FILL-ORIGIN LEVEL: 0
L1I AVERAGE MISS LATENCY: -nan cycles
L1I RQ	ACCESS:   14475899	FORWARD:          0	MERGED:    6480866	TO_CACHE:    7995033

BTB TOTAL     ACCESS:   11447585  HIT:   11447583  MISS:          2  HIT %:        100  MISS %: 1.74709e-05   MPKI: 4e-05
BTB BRANCH_DIRECT_JUMP	ACCESS:          0  HIT:          0  MISS:          0
BTB BRANCH_INDIRECT	ACCESS:          0  HIT:          0  MISS:          0
BTB BRANCH_CONDITIONAL	ACCESS:   11447585  HIT:   11447583  MISS:          2
BTB BRANCH_DIRECT_CALL	ACCESS:          0  HIT:          0  MISS:          0
BTB BRANCH_INDIRECT_CALL	ACCESS:          0  HIT:          0  MISS:          0
BTB BRANCH_RETURN	ACCESS:          0  HIT:          0  MISS:          0
BTB BRANCH_OTHER ACCESS:          0  HIT:          0  MISS:          0

L2C TOTAL     ACCESS:     271145  HIT:      91898  MISS:     179247  HIT %:    33.8926  MISS %:    66.1074   MPKI: 3.58494
L2C LOAD      ACCESS:       4259  HIT:          0  MISS:       4259  HIT %:          0  MISS %:        100   MPKI: 0.08518
L2C DATA LOAD MPKI: 0.08518
L2C INSTRUCTION LOAD MPKI: 0
L2C RFO       ACCESS:      89434  HIT:          0  MISS:      89434  HIT %:          0  MISS %:        100   MPKI: 1.78868
L2C PREFETCH  ACCESS:      85199  HIT:          0  MISS:      85199  HIT %:          0  MISS %:        100   MPKI: 1.70398
AGUS PREFETCH L1 MISS: 0
L2C DATA PREFETCH MPKI: 1.70398
L2C INSTRUCTION PREFETCH MPKI: 0
L2C WRITEBACK ACCESS:      89458  HIT:      89458  MISS:          0  HIT %:        100  MISS %:          0   MPKI: 0
L2C LOAD TRANSLATION ACCESS:       2795  HIT:       2440  MISS:        355  HIT %:    87.2987  MISS %:    12.7013   MPKI: 0.0071
L2C PREFETCH  REQUESTED:          0  ISSUED:          0  USEFUL:          0  USELESS:      85158
L2C USEFUL LOAD PREFETCHES:          0 PREFETCH ISSUED TO LOWER LEVEL:      85202  ACCURACY: 0
L2C TIMELY PREFETCHES:          0 LATE PREFETCHES: 0 DROPPED PREFETCHES: 0
L2C PREFETCHES SAME FILL-ORIGIN LEVEL: 0 DIFFERENT FILL-ORIGIN LEVEL: 0
L2C AVERAGE MISS LATENCY: 156.561 cycles
L2C RQ	ACCESS:      96488	FORWARD:          0	MERGED:          0	TO_CACHE:      96488
L2C WQ	ACCESS:      89458	FORWARD:          0	MERGED:          0	TO_CACHE:      89458
L2C PQ	ACCESS:      85202	FORWARD:          0	MERGED:          0	TO_CACHE:      85202

L2C Instructions Evicting Data 0
L2C Translations Evicting Data 355
L2C Data Evicting Data 178534
L2C Instructions Evicting Instructions 0
L2C Translations Evicting Instructions 0
L2C Data Evicting Instructions 0
L2C Instructions Evicting Translations 0
L2C Translations Evicting Translations 0
L2C Data Evicting Translations 358
L2C Dense regions hint from L2: 0
PSCL5 TOTAL     ACCESS:       2795  HIT:       2795  MISS:          0  HIT %:        100  MISS %:          0   MPKI: 0
PSCL5 LOAD TRANSLATION ACCESS:       2795  HIT:       2795  MISS:          0  HIT %:        100  MISS %:          0   MPKI: 0
PSCL5 PREFETCH  REQUESTED:          0  ISSUED:          0  USEFUL:          0  USELESS:          0
PSCL5 USEFUL LOAD PREFETCHES:          0 PREFETCH ISSUED TO LOWER LEVEL:          0  ACCURACY: -nan
PSCL5 TIMELY PREFETCHES:          0 LATE PREFETCHES: 0 DROPPED PREFETCHES: 0
PSCL5 PREFETCHES SAME FILL-ORIGIN LEVEL: 0 DIFFERENT FILL-ORIGIN LEVEL: 0

PSCL4 TOTAL     ACCESS:       2795  HIT:       2795  MISS:          0  HIT %:        100  MISS %:          0   MPKI: 0
PSCL4 LOAD TRANSLATION ACCESS:       2795  HIT:       2795  MISS:          0  HIT %:        100  MISS %:          0   MPKI: 0
PSCL4 PREFETCH  REQUESTED:          0  ISSUED:          0  USEFUL:          0  USELESS:          0
PSCL4 USEFUL LOAD PREFETCHES:          0 PREFETCH ISSUED TO LOWER LEVEL:          0  ACCURACY: -nan
PSCL4 TIMELY PREFETCHES:          0 LATE PREFETCHES: 0 DROPPED PREFETCHES: 0
PSCL4 PREFETCHES SAME FILL-ORIGIN LEVEL: 0 DIFFERENT FILL-ORIGIN LEVEL: 0

PSCL3 TOTAL     ACCESS:       2795  HIT:       2795  MISS:          0  HIT %:        100  MISS %:          0   MPKI: 0
PSCL3 LOAD TRANSLATION ACCESS:       2795  HIT:       2795  MISS:          0  HIT %:        100  MISS %:          0   MPKI: 0
PSCL3 PREFETCH  REQUESTED:          0  ISSUED:          0  USEFUL:          0  USELESS:          0
PSCL3 USEFUL LOAD PREFETCHES:          0 PREFETCH ISSUED TO LOWER LEVEL:          0  ACCURACY: -nan
PSCL3 TIMELY PREFETCHES:          0 LATE PREFETCHES: 0 DROPPED PREFETCHES: 0
PSCL3 PREFETCHES SAME FILL-ORIGIN LEVEL: 0 DIFFERENT FILL-ORIGIN LEVEL: 0

PSCL2 TOTAL     ACCESS:       2795  HIT:       2789  MISS:          6  HIT %:    99.7853  MISS %:   0.214669   MPKI: 0.00012
PSCL2 LOAD TRANSLATION ACCESS:       2795  HIT:       2789  MISS:          6  HIT %:    99.7853  MISS %:   0.214669   MPKI: 0.00012
PSCL2 PREFETCH  REQUESTED:          0  ISSUED:          0  USEFUL:          0  USELESS:          0
PSCL2 USEFUL LOAD PREFETCHES:          0 PREFETCH ISSUED TO LOWER LEVEL:          0  ACCURACY: -nan
PSCL2 TIMELY PREFETCHES:          0 LATE PREFETCHES: 0 DROPPED PREFETCHES: 0
PSCL2 PREFETCHES SAME FILL-ORIGIN LEVEL: 0 DIFFERENT FILL-ORIGIN LEVEL: 0

LLC TOTAL     ACCESS:     268673  HIT:      89424  MISS:     179249  HIT %:    33.2836  MISS %:    66.7164   MPKI: 3.58498
LLC LOAD      ACCESS:       4259  HIT:          0  MISS:       4259  HIT %:          0  MISS %:        100   MPKI: 0.08518
LLC RFO       ACCESS:      89434  HIT:          0  MISS:      89434  HIT %:          0  MISS %:        100   MPKI: 1.78868
LLC PREFETCH  ACCESS:      85201  HIT:          0  MISS:      85201  HIT %:          0  MISS %:        100   MPKI: 1.70402
AGUS PREFETCH L1 MISS: 0
LLC WRITEBACK ACCESS:      89424  HIT:      89424  MISS:          0  HIT %:        100  MISS %:          0   MPKI: 0
LLC LOAD TRANSLATION ACCESS:        355  HIT:          0  MISS:        355  HIT %:          0  MISS %:        100   MPKI: 0.0071
LLC PREFETCH  REQUESTED:          0  ISSUED:          0  USEFUL:          0  USELESS:      84755
LLC USEFUL LOAD PREFETCHES:          0 PREFETCH ISSUED TO LOWER LEVEL:      85202  ACCURACY: 0
LLC TIMELY PREFETCHES:          0 LATE PREFETCHES: 0 DROPPED PREFETCHES: 0
LLC PREFETCHES SAME FILL-ORIGIN LEVEL: 0 DIFFERENT FILL-ORIGIN LEVEL: 0
LLC AVERAGE MISS LATENCY: 126.519 cycles
LLC RQ	ACCESS:      94048	FORWARD:          0	MERGED:          0	TO_CACHE:      94048
LLC WQ	ACCESS:      89424	FORWARD:          0	MERGED:          0	TO_CACHE:      89424
LLC PQ	ACCESS:      85202	FORWARD:          0	MERGED:          0	TO_CACHE:      85202

LLC Dense regions hint to LLC: 0

RAW hits: 0
Loads Generated: 10690511
Loads sent to L1D: 10690511
Stores Generated: 5723795
Stores sent to L1D: 5723795
Major fault: 0 Minor fault: 5612
Allocated PAGES: 5612
CPU 0 L1D nextline prefetcher final stats
 Action = 30 : 281190
 Action = 23 : 210045
 Action = 16 : 253580
 Action = 11 : 604984
 Action = 10 : 339163
 Action = 22 : 350111
 Action = 5 : 306070
 Action = 4 : 352982
 Action = 32 : 493891
 Action = -3 : 629900
 Action = 12 : 430158
 Action = -6 : 535084
 Action = 3 : 632572
 Action = 1 : 2770594
 Action = -1 : 476556
 Action = 0 : 3772964
---------------Prefetch degree counts-----------------------
 prefetch degree = 5 : 2538
 number of times low bandwidth is  12025374
number of times high bandwidth is 0

DRAM Statistics
 CHANNEL 0
 RQ ROW_BUFFER_HIT:      95737  ROW_BUFFER_MISS:      83512
 DBUS_CONGESTED:        114
 WQ ROW_BUFFER_HIT:      15867  ROW_BUFFER_MISS:      73693  FULL:          0

 AVG_CONGESTED_CYCLE: 4
 All warmup complete: 2
Channel 0 Bank busy for read cycles: 0
Channel 0 Bank busy for write cycles: 0
Channel 0
Rank 0
0banks busy for read cycles: 70751833
0banks busy for write cycles: 57313
1banks busy for read cycles: 11761412
1banks busy for write cycles: 7879785
2banks busy for read cycles: 1084331
2banks busy for write cycles: 678645
3banks busy for read cycles: 425767
3banks busy for write cycles: 329277
4banks busy for read cycles: 224106
4banks busy for write cycles: 206678
5banks busy for read cycles: 116288
5banks busy for write cycles: 144588
6banks busy for read cycles: 79031
6banks busy for write cycles: 123645
7banks busy for read cycles: 17895
7banks busy for write cycles: 47755
8banks busy for read cycles: 3729
8banks busy for write cycles: 34039

CPU 0 Branch Prediction Accuracy: 93.3866% MPKI: 15.1416 Average ROB Occupancy at Mispredict: 12.9098
Branch types
NOT_BRANCH: 38552411 77.1048%
BRANCH_DIRECT_JUMP: 0 0%
BRANCH_INDIRECT: 0 0%
BRANCH_CONDITIONAL: 11447591 22.8952%
BRANCH_DIRECT_CALL: 0 0%
BRANCH_INDIRECT_CALL: 0 0%
BRANCH_RETURN: 0 0%
BRANCH_OTHER: 0 0%

DRAM PAGES: 1048576
Allocated PAGES: 5612
