
*** ChampSim Multicore Out-of-Order Simulator ***

Warmup Instructions: 100000000
Simulation Instructions: 100000000
Number of CPUs: 1
LLC sets: 2048
LLC ways: 16
Off-chip DRAM Size: 4096 MB Channels: 1 Width: 64-bit Data Rate: 6400 MT/s
CPU 0 runs ../Ligra/ligra_BC.com-lj.ungraph.gcc_6.3.0_O3.drop_15500M.length_250M.champsimtrace.xz
.xz
CPU 0 Bimodal branch predictor
BTB has LRU replacement policy
ITLB has LRU replacement policy
DTLB has LRU replacement policy
STLB has LRU replacement policy
L1I has LRU replacement policy
CPU 0 L1D - Pythia Preftecher 
L1D has LRU replacement policy
--------- This is L2C prefetcher --------------
L2C has LRU replacement policy
LLC has LRU replacement policy
Heartbeat CPU 0 instructions: 10000003 cycles: 2666966 heartbeat IPC: 3.74958 cumulative IPC: 3.74958 (Simulation time: 0 hr 0 min 19 sec) 
Heartbeat CPU 0 instructions: 20000001 cycles: 5333629 heartbeat IPC: 3.75 cumulative IPC: 3.74979 (Simulation time: 0 hr 0 min 39 sec) 
Heartbeat CPU 0 instructions: 30000003 cycles: 8000296 heartbeat IPC: 3.75 cumulative IPC: 3.74986 (Simulation time: 0 hr 1 min 0 sec) 
Heartbeat CPU 0 instructions: 40000003 cycles: 10666962 heartbeat IPC: 3.75 cumulative IPC: 3.7499 (Simulation time: 0 hr 1 min 23 sec) 
Heartbeat CPU 0 instructions: 50000001 cycles: 13333628 heartbeat IPC: 3.75 cumulative IPC: 3.74992 (Simulation time: 0 hr 1 min 44 sec) 
Heartbeat CPU 0 instructions: 60000003 cycles: 16000296 heartbeat IPC: 3.75 cumulative IPC: 3.74993 (Simulation time: 0 hr 2 min 7 sec) 
Heartbeat CPU 0 instructions: 70000002 cycles: 18939754 heartbeat IPC: 3.40199 cumulative IPC: 3.69593 (Simulation time: 0 hr 2 min 20 sec) 
Heartbeat CPU 0 instructions: 80000003 cycles: 21462106 heartbeat IPC: 3.96455 cumulative IPC: 3.7275 (Simulation time: 0 hr 2 min 40 sec) 
Heartbeat CPU 0 instructions: 90000000 cycles: 23985601 heartbeat IPC: 3.96276 cumulative IPC: 3.75225 (Simulation time: 0 hr 3 min 0 sec) 
Heartbeat CPU 0 instructions: 100000002 cycles: 26508504 heartbeat IPC: 3.96369 cumulative IPC: 3.77237 (Simulation time: 0 hr 3 min 20 sec) 

Warmup complete CPU 0 instructions: 100000002 cycles: 26508504 (Simulation time: 0 hr 3 min 20 sec) 

Heartbeat CPU 0 instructions: 110000000 cycles: 41086460 heartbeat IPC: 0.685967 cumulative IPC: 0.685967 (Simulation time: 0 hr 3 min 43 sec) 
Heartbeat CPU 0 instructions: 120000001 cycles: 54937958 heartbeat IPC: 0.721944 cumulative IPC: 0.703496 (Simulation time: 0 hr 4 min 6 sec) 
Heartbeat CPU 0 instructions: 130000002 cycles: 68443923 heartbeat IPC: 0.740414 cumulative IPC: 0.715386 (Simulation time: 0 hr 4 min 30 sec) 
Heartbeat CPU 0 instructions: 140000002 cycles: 82129033 heartbeat IPC: 0.730721 cumulative IPC: 0.719159 (Simulation time: 0 hr 4 min 52 sec) 
Heartbeat CPU 0 instructions: 150000002 cycles: 100638414 heartbeat IPC: 0.540267 cumulative IPC: 0.674492 (Simulation time: 0 hr 5 min 16 sec) 
Heartbeat CPU 0 instructions: 160000001 cycles: 120251195 heartbeat IPC: 0.509872 cumulative IPC: 0.64005 (Simulation time: 0 hr 5 min 39 sec) 
Heartbeat CPU 0 instructions: 170000000 cycles: 141151213 heartbeat IPC: 0.478468 cumulative IPC: 0.610593 (Simulation time: 0 hr 6 min 2 sec) 
Heartbeat CPU 0 instructions: 180000001 cycles: 159468112 heartbeat IPC: 0.545944 cumulative IPC: 0.601686 (Simulation time: 0 hr 6 min 23 sec) 
Heartbeat CPU 0 instructions: 190000001 cycles: 177958729 heartbeat IPC: 0.540815 cumulative IPC: 0.594255 (Simulation time: 0 hr 6 min 45 sec) 
Heartbeat CPU 0 instructions: 200000001 cycles: 196690936 heartbeat IPC: 0.53384 cumulative IPC: 0.587605 (Simulation time: 0 hr 7 min 7 sec) 
Finished CPU 0 instructions: 100000003 cycles: 170182433 cumulative IPC: 0.587605 (Simulation time: 0 hr 7 min 7 sec) 

ChampSim completed all CPUs

Region of Interest Statistics

CPU 0 cumulative IPC: 0.587605 instructions: 100000003 cycles: 170182433
ITLB TOTAL     ACCESS:   11904081  HIT:   11904081  MISS:          0  HIT %:        100  MISS %:          0   MPKI: 0
ITLB LOAD TRANSLATION ACCESS:   11904081  HIT:   11904081  MISS:          0  HIT %:        100  MISS %:          0   MPKI: 0
ITLB PREFETCH  REQUESTED:          0  ISSUED:          0  USEFUL:          0  USELESS:          0
ITLB USEFUL LOAD PREFETCHES:          0 PREFETCH ISSUED TO LOWER LEVEL:          0  ACCURACY: -nan
ITLB TIMELY PREFETCHES:          0 LATE PREFETCHES: 0 DROPPED PREFETCHES: 0
ITLB PREFETCHES SAME FILL-ORIGIN LEVEL: 0 DIFFERENT FILL-ORIGIN LEVEL: 0
ITLB AVERAGE MISS LATENCY: -nan cycles
ITLB RQ	ACCESS:   22199220	FORWARD:          0	MERGED:   10295140	TO_CACHE:   11904080

DTLB TOTAL     ACCESS:   14967619  HIT:   14934119  MISS:      33500  HIT %:    99.7762  MISS %:   0.223816   MPKI: 0.335
DTLB LOAD TRANSLATION ACCESS:   14967619  HIT:   14934119  MISS:      33500  HIT %:    99.7762  MISS %:   0.223816   MPKI: 0.335
DTLB PREFETCH  REQUESTED:          0  ISSUED:          0  USEFUL:          0  USELESS:          0
DTLB USEFUL LOAD PREFETCHES:          0 PREFETCH ISSUED TO LOWER LEVEL:          0  ACCURACY: -nan
DTLB TIMELY PREFETCHES:          0 LATE PREFETCHES: 0 DROPPED PREFETCHES: 0
DTLB PREFETCHES SAME FILL-ORIGIN LEVEL: 0 DIFFERENT FILL-ORIGIN LEVEL: 0
DTLB AVERAGE MISS LATENCY: 144.707 cycles
DTLB RQ	ACCESS:   25831959	FORWARD:          0	MERGED:   10742683	TO_CACHE:   15089276

STLB TOTAL     ACCESS:     542875  HIT:     509375  MISS:      33500  HIT %:    93.8292  MISS %:    6.17085   MPKI: 0.335
STLB LOAD TRANSLATION ACCESS:      33500  HIT:          0  MISS:      33500  HIT %:          0  MISS %:        100   MPKI: 0.335
STLB TRANSLATION FROM L1D PREFETCHER ACCESS:     509375  HIT:     509375  MISS:          0  HIT %:        100  MISS %:          0   MPKI: 0
STLB PREFETCH  REQUESTED:          0  ISSUED:          0  USEFUL:          0  USELESS:          0
STLB USEFUL LOAD PREFETCHES:          0 PREFETCH ISSUED TO LOWER LEVEL:          0  ACCURACY: -nan
STLB TIMELY PREFETCHES:          0 LATE PREFETCHES: 0 DROPPED PREFETCHES: 0
STLB PREFETCHES SAME FILL-ORIGIN LEVEL: 0 DIFFERENT FILL-ORIGIN LEVEL: 0
STLB AVERAGE MISS LATENCY: 135.693 cycles
STLB RQ	ACCESS:    2073567	FORWARD:          0	MERGED:    1530691	TO_CACHE:     542876

STLB Hit, L1D data hit: 0
STLB Hit, L2C data hit: 0
STLB Hit, LLC data hit: 0
STLB Hit, LLC data miss: 0
STLB STLB hints to L2: 0
L1D TOTAL     ACCESS:    8439954  HIT:    6263873  MISS:    2176081  HIT %:    74.2169  MISS %:    25.7831   MPKI: 21.7608
L1D LOAD      ACCESS:    3241982  HIT:    2695933  MISS:     546049  HIT %:    83.1569  MISS %:    16.8431   MPKI: 5.46049
L1D RFO       ACCESS:    3180501  HIT:    1840927  MISS:    1339574  HIT %:    57.8817  MISS %:    42.1183   MPKI: 13.3957
L1D PREFETCH  ACCESS:    2017471  HIT:    1727013  MISS:     290458  HIT %:    85.6029  MISS %:    14.3971   MPKI: 2.90458
AGUS PREFETCH L1 MISS: 0
L1D PREFETCH  REQUESTED:    4238460  ISSUED:    4236954  USEFUL:     258456  USELESS:      32091
L1D USEFUL LOAD PREFETCHES:     258456 PREFETCH ISSUED TO LOWER LEVEL:     294815  ACCURACY: 87.6672
L1D TIMELY PREFETCHES:     258456 LATE PREFETCHES: 4357 DROPPED PREFETCHES: 0
L1D PREFETCHES SAME FILL-ORIGIN LEVEL: 294815 DIFFERENT FILL-ORIGIN LEVEL: 0
L1D AVERAGE MISS LATENCY: 230.083 cycles
L1D RQ	ACCESS:   11604252	FORWARD:          0	MERGED:    7205495	TO_CACHE:    4398757
L1D WQ	ACCESS:   21433202	FORWARD:          0	MERGED:          0	TO_CACHE:   21433202
L1D PQ	ACCESS:    2196887	FORWARD:          0	MERGED:     156820	TO_CACHE:    2040067

L1D UNIQUE REGIONS ACCESSED: 0
L1D REGIONS CONFLICTS: 0
L1D Cross Page Prefetch Requests: 0
L1D Same Page Prefetch Requests: 40949924
L1D ROI Sum of L1D PQ occupancy: 28893998
L1D PREFETCHES PUSHED FROM L2C: 0
L1I TOTAL     ACCESS:   22199221  HIT:   22199221  MISS:          0  HIT %:        100  MISS %:          0   MPKI: 0
L1I LOAD      ACCESS:   22199221  HIT:   22199221  MISS:          0  HIT %:        100  MISS %:          0   MPKI: 0
L1I PREFETCH  REQUESTED:          0  ISSUED:          0  USEFUL:          0  USELESS:          0
L1I USEFUL LOAD PREFETCHES:          0 PREFETCH ISSUED TO LOWER LEVEL:          0  ACCURACY: -nan
L1I TIMELY PREFETCHES:          0 LATE PREFETCHES: 0 DROPPED PREFETCHES: 0
L1I PREFETCHES SAME FILL-ORIGIN LEVEL: 0 DIFFERENT FILL-ORIGIN LEVEL: 0
L1I AVERAGE MISS LATENCY: -nan cycles
L1I RQ	ACCESS:   32539534	FORWARD:          0	MERGED:   10340314	TO_CACHE:   22199220

BTB TOTAL     ACCESS:   11331658  HIT:   11331655  MISS:          3  HIT %:        100  MISS %: 2.64745e-05   MPKI: 3e-05
BTB BRANCH_DIRECT_JUMP	ACCESS:          0  HIT:          0  MISS:          0
BTB BRANCH_INDIRECT	ACCESS:          0  HIT:          0  MISS:          0
BTB BRANCH_CONDITIONAL	ACCESS:   11331658  HIT:   11331655  MISS:          3
BTB BRANCH_DIRECT_CALL	ACCESS:          0  HIT:          0  MISS:          0
BTB BRANCH_INDIRECT_CALL	ACCESS:          0  HIT:          0  MISS:          0
BTB BRANCH_RETURN	ACCESS:          0  HIT:          0  MISS:          0
BTB BRANCH_OTHER ACCESS:          0  HIT:          0  MISS:          0

L2C TOTAL     ACCESS:    3549115  HIT:    1400546  MISS:    2148569  HIT %:    39.4618  MISS %:    60.5382   MPKI: 21.4857
L2C LOAD      ACCESS:     541692  HIT:       5089  MISS:     536603  HIT %:   0.939464  MISS %:    99.0605   MPKI: 5.36603
L2C DATA LOAD MPKI: 5.36603
L2C INSTRUCTION LOAD MPKI: 0
L2C RFO       ACCESS:    1339574  HIT:          0  MISS:    1339574  HIT %:          0  MISS %:        100   MPKI: 13.3957
L2C PREFETCH  ACCESS:     294815  HIT:      26782  MISS:     268033  HIT %:    9.08434  MISS %:    90.9157   MPKI: 2.68033
AGUS PREFETCH L1 MISS: 0
L2C DATA PREFETCH MPKI: 2.68033
L2C INSTRUCTION PREFETCH MPKI: 0
L2C WRITEBACK ACCESS:    1339527  HIT:    1339527  MISS:          0  HIT %:        100  MISS %:          0   MPKI: 0
L2C LOAD TRANSLATION ACCESS:      33507  HIT:      29148  MISS:       4359  HIT %:    86.9908  MISS %:    13.0092   MPKI: 0.04359
L2C PREFETCH  REQUESTED:          0  ISSUED:          0  USEFUL:       5088  USELESS:     265054
L2C USEFUL LOAD PREFETCHES:       5088 PREFETCH ISSUED TO LOWER LEVEL:     268033  ACCURACY: 1.89827
L2C TIMELY PREFETCHES:       5088 LATE PREFETCHES: 0 DROPPED PREFETCHES: 0
L2C PREFETCHES SAME FILL-ORIGIN LEVEL: 0 DIFFERENT FILL-ORIGIN LEVEL: 0
L2C AVERAGE MISS LATENCY: 218.014 cycles
L2C RQ	ACCESS:    1914774	FORWARD:          0	MERGED:          0	TO_CACHE:    1914774
L2C WQ	ACCESS:    1339527	FORWARD:          0	MERGED:          0	TO_CACHE:    1339527
L2C PQ	ACCESS:     294815	FORWARD:          0	MERGED:          0	TO_CACHE:     294815

L2C Instructions Evicting Data 0
L2C Translations Evicting Data 4353
L2C Data Evicting Data 2139856
L2C Instructions Evicting Instructions 0
L2C Translations Evicting Instructions 0
L2C Data Evicting Instructions 0
L2C Instructions Evicting Translations 0
L2C Translations Evicting Translations 6
L2C Data Evicting Translations 4354
L2C Dense regions hint from L2: 0
PSCL5 TOTAL     ACCESS:      33500  HIT:      33500  MISS:          0  HIT %:        100  MISS %:          0   MPKI: 0
PSCL5 LOAD TRANSLATION ACCESS:      33500  HIT:      33500  MISS:          0  HIT %:        100  MISS %:          0   MPKI: 0
PSCL5 PREFETCH  REQUESTED:          0  ISSUED:          0  USEFUL:          0  USELESS:          0
PSCL5 USEFUL LOAD PREFETCHES:          0 PREFETCH ISSUED TO LOWER LEVEL:          0  ACCURACY: -nan
PSCL5 TIMELY PREFETCHES:          0 LATE PREFETCHES: 0 DROPPED PREFETCHES: 0
PSCL5 PREFETCHES SAME FILL-ORIGIN LEVEL: 0 DIFFERENT FILL-ORIGIN LEVEL: 0

PSCL4 TOTAL     ACCESS:      33500  HIT:      33500  MISS:          0  HIT %:        100  MISS %:          0   MPKI: 0
PSCL4 LOAD TRANSLATION ACCESS:      33500  HIT:      33500  MISS:          0  HIT %:        100  MISS %:          0   MPKI: 0
PSCL4 PREFETCH  REQUESTED:          0  ISSUED:          0  USEFUL:          0  USELESS:          0
PSCL4 USEFUL LOAD PREFETCHES:          0 PREFETCH ISSUED TO LOWER LEVEL:          0  ACCURACY: -nan
PSCL4 TIMELY PREFETCHES:          0 LATE PREFETCHES: 0 DROPPED PREFETCHES: 0
PSCL4 PREFETCHES SAME FILL-ORIGIN LEVEL: 0 DIFFERENT FILL-ORIGIN LEVEL: 0

PSCL3 TOTAL     ACCESS:      33500  HIT:      33500  MISS:          0  HIT %:        100  MISS %:          0   MPKI: 0
PSCL3 LOAD TRANSLATION ACCESS:      33500  HIT:      33500  MISS:          0  HIT %:        100  MISS %:          0   MPKI: 0
PSCL3 PREFETCH  REQUESTED:          0  ISSUED:          0  USEFUL:          0  USELESS:          0
PSCL3 USEFUL LOAD PREFETCHES:          0 PREFETCH ISSUED TO LOWER LEVEL:          0  ACCURACY: -nan
PSCL3 TIMELY PREFETCHES:          0 LATE PREFETCHES: 0 DROPPED PREFETCHES: 0
PSCL3 PREFETCHES SAME FILL-ORIGIN LEVEL: 0 DIFFERENT FILL-ORIGIN LEVEL: 0

PSCL2 TOTAL     ACCESS:      33500  HIT:      33432  MISS:         68  HIT %:     99.797  MISS %:   0.202985   MPKI: 0.00068
PSCL2 LOAD TRANSLATION ACCESS:      33500  HIT:      33432  MISS:         68  HIT %:     99.797  MISS %:   0.202985   MPKI: 0.00068
PSCL2 PREFETCH  REQUESTED:          0  ISSUED:          0  USEFUL:          0  USELESS:          0
PSCL2 USEFUL LOAD PREFETCHES:          0 PREFETCH ISSUED TO LOWER LEVEL:          0  ACCURACY: -nan
PSCL2 TIMELY PREFETCHES:          0 LATE PREFETCHES: 0 DROPPED PREFETCHES: 0
PSCL2 PREFETCHES SAME FILL-ORIGIN LEVEL: 0 DIFFERENT FILL-ORIGIN LEVEL: 0

LLC TOTAL     ACCESS:    3488595  HIT:    1340289  MISS:    2148306  HIT %:    38.4192  MISS %:    61.5808   MPKI: 21.4831
LLC LOAD      ACCESS:     536603  HIT:         16  MISS:     536587  HIT %: 0.00298172  MISS %:     99.997   MPKI: 5.36587
LLC RFO       ACCESS:    1339574  HIT:          0  MISS:    1339574  HIT %:          0  MISS %:        100   MPKI: 13.3957
LLC PREFETCH  ACCESS:     268033  HIT:        148  MISS:     267885  HIT %:  0.0552171  MISS %:    99.9448   MPKI: 2.67885
AGUS PREFETCH L1 MISS: 0
LLC WRITEBACK ACCESS:    1340026  HIT:    1340026  MISS:          0  HIT %:        100  MISS %:          0   MPKI: 0
LLC LOAD TRANSLATION ACCESS:       4359  HIT:         99  MISS:       4260  HIT %:    2.27116  MISS %:    97.7288   MPKI: 0.0426
LLC PREFETCH  REQUESTED:          0  ISSUED:          0  USEFUL:         16  USELESS:     275752
LLC USEFUL LOAD PREFETCHES:         16 PREFETCH ISSUED TO LOWER LEVEL:     267885  ACCURACY: 0.00597271
LLC TIMELY PREFETCHES:         16 LATE PREFETCHES: 0 DROPPED PREFETCHES: 0
LLC PREFETCHES SAME FILL-ORIGIN LEVEL: 0 DIFFERENT FILL-ORIGIN LEVEL: 0
LLC AVERAGE MISS LATENCY: 187.647 cycles
LLC RQ	ACCESS:    1880537	FORWARD:          0	MERGED:          0	TO_CACHE:    1880537
LLC WQ	ACCESS:    1340026	FORWARD:          0	MERGED:          0	TO_CACHE:    1340026
LLC PQ	ACCESS:     268033	FORWARD:          0	MERGED:          0	TO_CACHE:     268033

LLC Dense regions hint to LLC: 0

RAW hits: 0
Loads Generated: 11604252
Loads sent to L1D: 11604252
Stores Generated: 21433208
Stores sent to L1D: 21433202
Major fault: 0 Minor fault: 74109
Allocated PAGES: 74109
CPU 0 L1D nextline prefetcher final stats
 Action = 30 : 179207
 Action = 23 : 131280
 Action = 16 : 114717
 Action = 11 : 110574
 Action = 10 : 156494
 Action = 22 : 126048
 Action = 5 : 117052
 Action = 32 : 406999
 Action = -3 : 422739
 Action = 12 : 149523
 Action = -6 : 125929
 Action = 3 : 131581
 Action = 0 : 5202216
 Action = -1 : 99518
 Action = 1 : 7101151
 Action = 4 : 120831
---------------Prefetch degree counts-----------------------
 prefetch degree = 5 : 2999
 number of times low bandwidth is  10337518
number of times high bandwidth is 4259316

DRAM Statistics
 CHANNEL 0
 RQ ROW_BUFFER_HIT:     339579  ROW_BUFFER_MISS:    1808727
 DBUS_CONGESTED:        895
 WQ ROW_BUFFER_HIT:     881243  ROW_BUFFER_MISS:     459738  FULL:          0

 AVG_CONGESTED_CYCLE: 5
 All warmup complete: 2
Channel 0 Bank busy for read cycles: 0
Channel 0 Bank busy for write cycles: 0
Channel 0
Rank 0
0banks busy for read cycles: 1228377
0banks busy for write cycles: 3880
1banks busy for read cycles: 32350614
1banks busy for write cycles: 1154508
2banks busy for read cycles: 34837257
2banks busy for write cycles: 1037739
3banks busy for read cycles: 35212979
3banks busy for write cycles: 922788
4banks busy for read cycles: 8521318
4banks busy for write cycles: 867047
5banks busy for read cycles: 4880575
5banks busy for write cycles: 876215
6banks busy for read cycles: 2467626
6banks busy for write cycles: 1100423
7banks busy for read cycles: 957671
7banks busy for write cycles: 3763007
8banks busy for read cycles: 290361
8banks busy for write cycles: 39710049

CPU 0 Branch Prediction Accuracy: 97.1357% MPKI: 3.24589 Average ROB Occupancy at Mispredict: 110.06
Branch types
NOT_BRANCH: 88667542 88.6675%
BRANCH_DIRECT_JUMP: 0 0%
BRANCH_INDIRECT: 0 0%
BRANCH_CONDITIONAL: 11332405 11.3324%
BRANCH_DIRECT_CALL: 0 0%
BRANCH_INDIRECT_CALL: 0 0%
BRANCH_RETURN: 0 0%
BRANCH_OTHER: 0 0%

DRAM PAGES: 1048576
Allocated PAGES: 74109
