
*** ChampSim Multicore Out-of-Order Simulator ***

Warmup Instructions: 100000000
Simulation Instructions: 100000000
Number of CPUs: 1
LLC sets: 2048
LLC ways: 16
Off-chip DRAM Size: 4096 MB Channels: 1 Width: 64-bit Data Rate: 6400 MT/s
CPU 0 runs ../Ligra/ligra_BC.com-lj.ungraph.gcc_6.3.0_O3.drop_15500M.length_250M.champsimtrace.xz
.xz
CPU 0 Bimodal branch predictor
BTB has LRU replacement policy
ITLB has LRU replacement policy
DTLB has LRU replacement policy
STLB has LRU replacement policy
L1I has LRU replacement policy
L1D has LRU replacement policy
L2C has LRU replacement policy
LLC has LRU replacement policy
Heartbeat CPU 0 instructions: 10000003 cycles: 2666967 heartbeat IPC: 3.74958 cumulative IPC: 3.74958 (Simulation time: 0 hr 0 min 5 sec) 
Heartbeat CPU 0 instructions: 20000000 cycles: 5333632 heartbeat IPC: 3.75 cumulative IPC: 3.74979 (Simulation time: 0 hr 0 min 9 sec) 
Heartbeat CPU 0 instructions: 30000003 cycles: 8000301 heartbeat IPC: 3.75 cumulative IPC: 3.74986 (Simulation time: 0 hr 0 min 14 sec) 
Heartbeat CPU 0 instructions: 40000000 cycles: 10666964 heartbeat IPC: 3.75 cumulative IPC: 3.7499 (Simulation time: 0 hr 0 min 19 sec) 
Heartbeat CPU 0 instructions: 50000003 cycles: 13333632 heartbeat IPC: 3.75 cumulative IPC: 3.74992 (Simulation time: 0 hr 0 min 23 sec) 
Heartbeat CPU 0 instructions: 60000003 cycles: 16000299 heartbeat IPC: 3.75 cumulative IPC: 3.74993 (Simulation time: 0 hr 0 min 28 sec) 
Heartbeat CPU 0 instructions: 70000003 cycles: 18942896 heartbeat IPC: 3.39836 cumulative IPC: 3.69532 (Simulation time: 0 hr 0 min 34 sec) 
Heartbeat CPU 0 instructions: 80000003 cycles: 21472016 heartbeat IPC: 3.95394 cumulative IPC: 3.72578 (Simulation time: 0 hr 0 min 42 sec) 
Heartbeat CPU 0 instructions: 90000000 cycles: 24002188 heartbeat IPC: 3.9523 cumulative IPC: 3.74966 (Simulation time: 0 hr 0 min 51 sec) 
Heartbeat CPU 0 instructions: 100000003 cycles: 26531406 heartbeat IPC: 3.95379 cumulative IPC: 3.76912 (Simulation time: 0 hr 1 min 0 sec) 

Warmup complete CPU 0 instructions: 100000003 cycles: 26531406 (Simulation time: 0 hr 1 min 0 sec) 

Heartbeat CPU 0 instructions: 110000000 cycles: 46040538 heartbeat IPC: 0.51258 cumulative IPC: 0.51258 (Simulation time: 0 hr 1 min 18 sec) 
Heartbeat CPU 0 instructions: 120000001 cycles: 65742654 heartbeat IPC: 0.50756 cumulative IPC: 0.510058 (Simulation time: 0 hr 1 min 37 sec) 
Heartbeat CPU 0 instructions: 130000002 cycles: 85608208 heartbeat IPC: 0.503384 cumulative IPC: 0.507814 (Simulation time: 0 hr 1 min 55 sec) 
Heartbeat CPU 0 instructions: 140000002 cycles: 105939612 heartbeat IPC: 0.49185 cumulative IPC: 0.503726 (Simulation time: 0 hr 2 min 13 sec) 
Heartbeat CPU 0 instructions: 150000001 cycles: 128240183 heartbeat IPC: 0.448419 cumulative IPC: 0.4916 (Simulation time: 0 hr 2 min 30 sec) 
Heartbeat CPU 0 instructions: 160000001 cycles: 150027890 heartbeat IPC: 0.458974 cumulative IPC: 0.485844 (Simulation time: 0 hr 2 min 47 sec) 
Heartbeat CPU 0 instructions: 170000001 cycles: 173080436 heartbeat IPC: 0.433792 cumulative IPC: 0.477656 (Simulation time: 0 hr 3 min 5 sec) 
Heartbeat CPU 0 instructions: 180000001 cycles: 193331827 heartbeat IPC: 0.493793 cumulative IPC: 0.479615 (Simulation time: 0 hr 3 min 23 sec) 
Heartbeat CPU 0 instructions: 190000001 cycles: 213782256 heartbeat IPC: 0.488987 cumulative IPC: 0.480639 (Simulation time: 0 hr 3 min 41 sec) 
Heartbeat CPU 0 instructions: 200000001 cycles: 234444696 heartbeat IPC: 0.48397 cumulative IPC: 0.48097 (Simulation time: 0 hr 4 min 0 sec) 
Finished CPU 0 instructions: 100000002 cycles: 207913291 cumulative IPC: 0.48097 (Simulation time: 0 hr 4 min 0 sec) 

ChampSim completed all CPUs

Region of Interest Statistics

CPU 0 cumulative IPC: 0.48097 instructions: 100000002 cycles: 207913291
ITLB TOTAL     ACCESS:   12160896  HIT:   12160896  MISS:          0  HIT %:        100  MISS %:          0   MPKI: 0
ITLB LOAD TRANSLATION ACCESS:   12160896  HIT:   12160896  MISS:          0  HIT %:        100  MISS %:          0   MPKI: 0
ITLB PREFETCH  REQUESTED:          0  ISSUED:          0  USEFUL:          0  USELESS:          0
ITLB USEFUL LOAD PREFETCHES:          0 PREFETCH ISSUED TO LOWER LEVEL:          0  ACCURACY: -nan
ITLB TIMELY PREFETCHES:          0 LATE PREFETCHES: 0 DROPPED PREFETCHES: 0
ITLB PREFETCHES SAME FILL-ORIGIN LEVEL: 0 DIFFERENT FILL-ORIGIN LEVEL: 0
ITLB AVERAGE MISS LATENCY: -nan cycles
ITLB RQ	ACCESS:   22338920	FORWARD:          0	MERGED:   10178025	TO_CACHE:   12160895

DTLB TOTAL     ACCESS:   14413384  HIT:   14379884  MISS:      33500  HIT %:    99.7676  MISS %:   0.232423   MPKI: 0.335
DTLB LOAD TRANSLATION ACCESS:   14413384  HIT:   14379884  MISS:      33500  HIT %:    99.7676  MISS %:   0.232423   MPKI: 0.335
DTLB PREFETCH  REQUESTED:          0  ISSUED:          0  USEFUL:          0  USELESS:          0
DTLB USEFUL LOAD PREFETCHES:          0 PREFETCH ISSUED TO LOWER LEVEL:          0  ACCURACY: -nan
DTLB TIMELY PREFETCHES:          0 LATE PREFETCHES: 0 DROPPED PREFETCHES: 0
DTLB PREFETCHES SAME FILL-ORIGIN LEVEL: 0 DIFFERENT FILL-ORIGIN LEVEL: 0
DTLB AVERAGE MISS LATENCY: 143.959 cycles
DTLB RQ	ACCESS:   25258283	FORWARD:          0	MERGED:   10742314	TO_CACHE:   14515969

STLB TOTAL     ACCESS:      33500  HIT:          0  MISS:      33500  HIT %:          0  MISS %:        100   MPKI: 0.335
STLB LOAD TRANSLATION ACCESS:      33500  HIT:          0  MISS:      33500  HIT %:          0  MISS %:        100   MPKI: 0.335
STLB PREFETCH  REQUESTED:          0  ISSUED:          0  USEFUL:          0  USELESS:          0
STLB USEFUL LOAD PREFETCHES:          0 PREFETCH ISSUED TO LOWER LEVEL:          0  ACCURACY: -nan
STLB TIMELY PREFETCHES:          0 LATE PREFETCHES: 0 DROPPED PREFETCHES: 0
STLB PREFETCHES SAME FILL-ORIGIN LEVEL: 0 DIFFERENT FILL-ORIGIN LEVEL: 0
STLB AVERAGE MISS LATENCY: 134.939 cycles
STLB RQ	ACCESS:      33500	FORWARD:          0	MERGED:          0	TO_CACHE:      33500

STLB Hit, L1D data hit: 0
STLB Hit, L2C data hit: 0
STLB Hit, LLC data hit: 0
STLB Hit, LLC data miss: 0
STLB STLB hints to L2: 0
L1D TOTAL     ACCESS:    6433436  HIT:    4289357  MISS:    2144079  HIT %:    66.6729  MISS %:    33.3271   MPKI: 21.4408
L1D LOAD      ACCESS:    2401115  HIT:    1596610  MISS:     804505  HIT %:    66.4945  MISS %:    33.5055   MPKI: 8.04505
L1D RFO       ACCESS:    4032321  HIT:    2692747  MISS:    1339574  HIT %:    66.7791  MISS %:    33.2209   MPKI: 13.3957
L1D PREFETCH  REQUESTED:          0  ISSUED:          0  USEFUL:          0  USELESS:          0
L1D USEFUL LOAD PREFETCHES:          0 PREFETCH ISSUED TO LOWER LEVEL:          0  ACCURACY: -nan
L1D TIMELY PREFETCHES:          0 LATE PREFETCHES: 0 DROPPED PREFETCHES: 0
L1D PREFETCHES SAME FILL-ORIGIN LEVEL: 0 DIFFERENT FILL-ORIGIN LEVEL: 0
L1D AVERAGE MISS LATENCY: 225.348 cycles
L1D RQ	ACCESS:   11604252	FORWARD:          0	MERGED:    7779171	TO_CACHE:    3825081
L1D WQ	ACCESS:   21433202	FORWARD:          0	MERGED:          0	TO_CACHE:   21433202

L1D UNIQUE REGIONS ACCESSED: 0
L1D REGIONS CONFLICTS: 0
L1D Cross Page Prefetch Requests: 0
L1D Same Page Prefetch Requests: 0
L1D ROI Sum of L1D PQ occupancy: 0
L1D PREFETCHES PUSHED FROM L2C: 0
L1I TOTAL     ACCESS:   22338921  HIT:   22338921  MISS:          0  HIT %:        100  MISS %:          0   MPKI: 0
L1I LOAD      ACCESS:   22338921  HIT:   22338921  MISS:          0  HIT %:        100  MISS %:          0   MPKI: 0
L1I PREFETCH  REQUESTED:          0  ISSUED:          0  USEFUL:          0  USELESS:          0
L1I USEFUL LOAD PREFETCHES:          0 PREFETCH ISSUED TO LOWER LEVEL:          0  ACCURACY: -nan
L1I TIMELY PREFETCHES:          0 LATE PREFETCHES: 0 DROPPED PREFETCHES: 0
L1I PREFETCHES SAME FILL-ORIGIN LEVEL: 0 DIFFERENT FILL-ORIGIN LEVEL: 0
L1I AVERAGE MISS LATENCY: -nan cycles
L1I RQ	ACCESS:   32569182	FORWARD:          0	MERGED:   10230262	TO_CACHE:   22338920

BTB TOTAL     ACCESS:   11331658  HIT:   11331655  MISS:          3  HIT %:        100  MISS %: 2.64745e-05   MPKI: 3e-05
BTB BRANCH_DIRECT_JUMP	ACCESS:          0  HIT:          0  MISS:          0
BTB BRANCH_INDIRECT	ACCESS:          0  HIT:          0  MISS:          0
BTB BRANCH_CONDITIONAL	ACCESS:   11331658  HIT:   11331655  MISS:          3
BTB BRANCH_DIRECT_CALL	ACCESS:          0  HIT:          0  MISS:          0
BTB BRANCH_INDIRECT_CALL	ACCESS:          0  HIT:          0  MISS:          0
BTB BRANCH_RETURN	ACCESS:          0  HIT:          0  MISS:          0
BTB BRANCH_OTHER ACCESS:          0  HIT:          0  MISS:          0

L2C TOTAL     ACCESS:    3517179  HIT:    1368751  MISS:    2148428  HIT %:    38.9162  MISS %:    61.0838   MPKI: 21.4843
L2C LOAD      ACCESS:     804505  HIT:         10  MISS:     804495  HIT %:   0.001243  MISS %:    99.9988   MPKI: 8.04495
L2C DATA LOAD MPKI: 8.04495
L2C INSTRUCTION LOAD MPKI: 0
L2C RFO       ACCESS:    1339574  HIT:          0  MISS:    1339574  HIT %:          0  MISS %:        100   MPKI: 13.3957
L2C WRITEBACK ACCESS:    1339593  HIT:    1339593  MISS:          0  HIT %:        100  MISS %:          0   MPKI: 0
L2C LOAD TRANSLATION ACCESS:      33507  HIT:      29148  MISS:       4359  HIT %:    86.9908  MISS %:    13.0092   MPKI: 0.04359
L2C PREFETCH  REQUESTED:          0  ISSUED:          0  USEFUL:          0  USELESS:          0
L2C USEFUL LOAD PREFETCHES:          0 PREFETCH ISSUED TO LOWER LEVEL:          0  ACCURACY: -nan
L2C TIMELY PREFETCHES:          0 LATE PREFETCHES: 0 DROPPED PREFETCHES: 0
L2C PREFETCHES SAME FILL-ORIGIN LEVEL: 0 DIFFERENT FILL-ORIGIN LEVEL: 0
L2C AVERAGE MISS LATENCY: 210.191 cycles
L2C RQ	ACCESS:    2177587	FORWARD:          0	MERGED:          0	TO_CACHE:    2177587
L2C WQ	ACCESS:    1339593	FORWARD:          0	MERGED:          0	TO_CACHE:    1339593

L2C Instructions Evicting Data 0
L2C Translations Evicting Data 4357
L2C Data Evicting Data 2139710
L2C Instructions Evicting Instructions 0
L2C Translations Evicting Instructions 0
L2C Data Evicting Instructions 0
L2C Instructions Evicting Translations 0
L2C Translations Evicting Translations 2
L2C Data Evicting Translations 4359
L2C Dense regions hint from L2: 0
PSCL5 TOTAL     ACCESS:      33500  HIT:      33500  MISS:          0  HIT %:        100  MISS %:          0   MPKI: 0
PSCL5 LOAD TRANSLATION ACCESS:      33500  HIT:      33500  MISS:          0  HIT %:        100  MISS %:          0   MPKI: 0
PSCL5 PREFETCH  REQUESTED:          0  ISSUED:          0  USEFUL:          0  USELESS:          0
PSCL5 USEFUL LOAD PREFETCHES:          0 PREFETCH ISSUED TO LOWER LEVEL:          0  ACCURACY: -nan
PSCL5 TIMELY PREFETCHES:          0 LATE PREFETCHES: 0 DROPPED PREFETCHES: 0
PSCL5 PREFETCHES SAME FILL-ORIGIN LEVEL: 0 DIFFERENT FILL-ORIGIN LEVEL: 0

PSCL4 TOTAL     ACCESS:      33500  HIT:      33500  MISS:          0  HIT %:        100  MISS %:          0   MPKI: 0
PSCL4 LOAD TRANSLATION ACCESS:      33500  HIT:      33500  MISS:          0  HIT %:        100  MISS %:          0   MPKI: 0
PSCL4 PREFETCH  REQUESTED:          0  ISSUED:          0  USEFUL:          0  USELESS:          0
PSCL4 USEFUL LOAD PREFETCHES:          0 PREFETCH ISSUED TO LOWER LEVEL:          0  ACCURACY: -nan
PSCL4 TIMELY PREFETCHES:          0 LATE PREFETCHES: 0 DROPPED PREFETCHES: 0
PSCL4 PREFETCHES SAME FILL-ORIGIN LEVEL: 0 DIFFERENT FILL-ORIGIN LEVEL: 0

PSCL3 TOTAL     ACCESS:      33500  HIT:      33500  MISS:          0  HIT %:        100  MISS %:          0   MPKI: 0
PSCL3 LOAD TRANSLATION ACCESS:      33500  HIT:      33500  MISS:          0  HIT %:        100  MISS %:          0   MPKI: 0
PSCL3 PREFETCH  REQUESTED:          0  ISSUED:          0  USEFUL:          0  USELESS:          0
PSCL3 USEFUL LOAD PREFETCHES:          0 PREFETCH ISSUED TO LOWER LEVEL:          0  ACCURACY: -nan
PSCL3 TIMELY PREFETCHES:          0 LATE PREFETCHES: 0 DROPPED PREFETCHES: 0
PSCL3 PREFETCHES SAME FILL-ORIGIN LEVEL: 0 DIFFERENT FILL-ORIGIN LEVEL: 0

PSCL2 TOTAL     ACCESS:      33500  HIT:      33432  MISS:         68  HIT %:     99.797  MISS %:   0.202985   MPKI: 0.00068
PSCL2 LOAD TRANSLATION ACCESS:      33500  HIT:      33432  MISS:         68  HIT %:     99.797  MISS %:   0.202985   MPKI: 0.00068
PSCL2 PREFETCH  REQUESTED:          0  ISSUED:          0  USEFUL:          0  USELESS:          0
PSCL2 USEFUL LOAD PREFETCHES:          0 PREFETCH ISSUED TO LOWER LEVEL:          0  ACCURACY: -nan
PSCL2 TIMELY PREFETCHES:          0 LATE PREFETCHES: 0 DROPPED PREFETCHES: 0
PSCL2 PREFETCHES SAME FILL-ORIGIN LEVEL: 0 DIFFERENT FILL-ORIGIN LEVEL: 0

LLC TOTAL     ACCESS:    3488386  HIT:    1340057  MISS:    2148329  HIT %:    38.4148  MISS %:    61.5852   MPKI: 21.4833
LLC LOAD      ACCESS:     804495  HIT:          0  MISS:     804495  HIT %:          0  MISS %:        100   MPKI: 8.04495
LLC RFO       ACCESS:    1339574  HIT:          0  MISS:    1339574  HIT %:          0  MISS %:        100   MPKI: 13.3957
LLC WRITEBACK ACCESS:    1339958  HIT:    1339958  MISS:          0  HIT %:        100  MISS %:          0   MPKI: 0
LLC LOAD TRANSLATION ACCESS:       4359  HIT:         99  MISS:       4260  HIT %:    2.27116  MISS %:    97.7288   MPKI: 0.0426
LLC PREFETCH  REQUESTED:          0  ISSUED:          0  USEFUL:          0  USELESS:          0
LLC USEFUL LOAD PREFETCHES:          0 PREFETCH ISSUED TO LOWER LEVEL:          0  ACCURACY: -nan
LLC TIMELY PREFETCHES:          0 LATE PREFETCHES: 0 DROPPED PREFETCHES: 0
LLC PREFETCHES SAME FILL-ORIGIN LEVEL: 0 DIFFERENT FILL-ORIGIN LEVEL: 0
LLC AVERAGE MISS LATENCY: 180.111 cycles
LLC RQ	ACCESS:    2148429	FORWARD:          0	MERGED:          0	TO_CACHE:    2148429
LLC WQ	ACCESS:    1339958	FORWARD:          0	MERGED:          0	TO_CACHE:    1339958

LLC Dense regions hint to LLC: 0

RAW hits: 0
Loads Generated: 11604252
Loads sent to L1D: 11604252
Stores Generated: 21433208
Stores sent to L1D: 21433202
Major fault: 0 Minor fault: 74109
Allocated PAGES: 74109

DRAM Statistics
 CHANNEL 0
 RQ ROW_BUFFER_HIT:     197819  ROW_BUFFER_MISS:    1950510
 DBUS_CONGESTED:        674
 WQ ROW_BUFFER_HIT:    1101215  ROW_BUFFER_MISS:     239880  FULL:          0

 AVG_CONGESTED_CYCLE: 5
 All warmup complete: 2
Channel 0 Bank busy for read cycles: 0
Channel 0 Bank busy for write cycles: 0
Channel 0
Rank 0
0banks busy for read cycles: 1553995
0banks busy for write cycles: 4233
1banks busy for read cycles: 42837109
1banks busy for write cycles: 1499395
2banks busy for read cycles: 44237980
2banks busy for write cycles: 1371151
3banks busy for read cycles: 53284806
3banks busy for write cycles: 1224724
4banks busy for read cycles: 2747199
4banks busy for write cycles: 1144331
5banks busy for read cycles: 63488
5banks busy for write cycles: 1198070
6banks busy for read cycles: 3823
6banks busy for write cycles: 1695961
7banks busy for read cycles: 114
7banks busy for write cycles: 5446601
8banks busy for read cycles: 0
8banks busy for write cycles: 49600312

CPU 0 Branch Prediction Accuracy: 97.1357% MPKI: 3.24589 Average ROB Occupancy at Mispredict: 143.65
Branch types
NOT_BRANCH: 88667542 88.6675%
BRANCH_DIRECT_JUMP: 0 0%
BRANCH_INDIRECT: 0 0%
BRANCH_CONDITIONAL: 11332405 11.3324%
BRANCH_DIRECT_CALL: 0 0%
BRANCH_INDIRECT_CALL: 0 0%
BRANCH_RETURN: 0 0%
BRANCH_OTHER: 0 0%

DRAM PAGES: 1048576
Allocated PAGES: 74109
