
*** ChampSim Multicore Out-of-Order Simulator ***

Warmup Instructions: 100000000
Simulation Instructions: 100000000
Number of CPUs: 1
LLC sets: 2048
LLC ways: 16
Off-chip DRAM Size: 4096 MB Channels: 1 Width: 64-bit Data Rate: 6400 MT/s
CPU 0 runs ../Ligra/ligra_BFSCC.com-lj.ungraph.gcc_6.3.0_O3.drop_3500M.length_250M.champsimtrace.xz
.xz
CPU 0 Bimodal branch predictor
BTB has LRU replacement policy
ITLB has LRU replacement policy
DTLB has LRU replacement policy
STLB has LRU replacement policy
L1I has LRU replacement policy
L1D has LRU replacement policy
L2C has LRU replacement policy
LLC has LRU replacement policy
Heartbeat CPU 0 instructions: 10000002 cycles: 3333345 heartbeat IPC: 2.99999 cumulative IPC: 2.99999 (Simulation time: 0 hr 0 min 5 sec) 
Heartbeat CPU 0 instructions: 20000000 cycles: 6666677 heartbeat IPC: 3 cumulative IPC: 3 (Simulation time: 0 hr 0 min 9 sec) 
Heartbeat CPU 0 instructions: 30000001 cycles: 10000011 heartbeat IPC: 3 cumulative IPC: 3 (Simulation time: 0 hr 0 min 13 sec) 
Heartbeat CPU 0 instructions: 40000001 cycles: 13333345 heartbeat IPC: 3 cumulative IPC: 3 (Simulation time: 0 hr 0 min 18 sec) 
Heartbeat CPU 0 instructions: 50000003 cycles: 16666679 heartbeat IPC: 3 cumulative IPC: 3 (Simulation time: 0 hr 0 min 22 sec) 
Heartbeat CPU 0 instructions: 60000000 cycles: 20000011 heartbeat IPC: 3 cumulative IPC: 3 (Simulation time: 0 hr 0 min 27 sec) 
Heartbeat CPU 0 instructions: 70000001 cycles: 23333345 heartbeat IPC: 3 cumulative IPC: 3 (Simulation time: 0 hr 0 min 31 sec) 
Heartbeat CPU 0 instructions: 80000002 cycles: 26666678 heartbeat IPC: 3 cumulative IPC: 3 (Simulation time: 0 hr 0 min 35 sec) 
Heartbeat CPU 0 instructions: 90000001 cycles: 30000011 heartbeat IPC: 3 cumulative IPC: 3 (Simulation time: 0 hr 0 min 39 sec) 
Heartbeat CPU 0 instructions: 100000000 cycles: 33333344 heartbeat IPC: 3 cumulative IPC: 3 (Simulation time: 0 hr 0 min 44 sec) 

Warmup complete CPU 0 instructions: 100000003 cycles: 33333345 (Simulation time: 0 hr 0 min 44 sec) 

Heartbeat CPU 0 instructions: 110000000 cycles: 54418487 heartbeat IPC: 0.474268 cumulative IPC: 0.474267 (Simulation time: 0 hr 0 min 55 sec) 
Heartbeat CPU 0 instructions: 120000000 cycles: 75258734 heartbeat IPC: 0.479841 cumulative IPC: 0.477038 (Simulation time: 0 hr 1 min 7 sec) 
Heartbeat CPU 0 instructions: 130000002 cycles: 96096623 heartbeat IPC: 0.479895 cumulative IPC: 0.477986 (Simulation time: 0 hr 1 min 18 sec) 
Heartbeat CPU 0 instructions: 140000000 cycles: 116809293 heartbeat IPC: 0.482796 cumulative IPC: 0.47918 (Simulation time: 0 hr 1 min 30 sec) 
Heartbeat CPU 0 instructions: 150000000 cycles: 137491811 heartbeat IPC: 0.4835 cumulative IPC: 0.480038 (Simulation time: 0 hr 1 min 41 sec) 
Heartbeat CPU 0 instructions: 160000002 cycles: 158318946 heartbeat IPC: 0.480143 cumulative IPC: 0.480055 (Simulation time: 0 hr 1 min 53 sec) 
Heartbeat CPU 0 instructions: 170000002 cycles: 179681141 heartbeat IPC: 0.468117 cumulative IPC: 0.478313 (Simulation time: 0 hr 2 min 5 sec) 
Heartbeat CPU 0 instructions: 180000002 cycles: 200803124 heartbeat IPC: 0.47344 cumulative IPC: 0.477698 (Simulation time: 0 hr 2 min 16 sec) 
Heartbeat CPU 0 instructions: 190000001 cycles: 221616129 heartbeat IPC: 0.480469 cumulative IPC: 0.478004 (Simulation time: 0 hr 2 min 28 sec) 
Heartbeat CPU 0 instructions: 200000001 cycles: 242825535 heartbeat IPC: 0.471489 cumulative IPC: 0.477345 (Simulation time: 0 hr 2 min 39 sec) 
Finished CPU 0 instructions: 100000000 cycles: 209492193 cumulative IPC: 0.477345 (Simulation time: 0 hr 2 min 39 sec) 

ChampSim completed all CPUs

Region of Interest Statistics

CPU 0 cumulative IPC: 0.477345 instructions: 100000000 cycles: 209492193
ITLB TOTAL     ACCESS:   15950877  HIT:   15950877  MISS:          0  HIT %:        100  MISS %:          0   MPKI: 0
ITLB LOAD TRANSLATION ACCESS:   15950877  HIT:   15950877  MISS:          0  HIT %:        100  MISS %:          0   MPKI: 0
ITLB PREFETCH  REQUESTED:          0  ISSUED:          0  USEFUL:          0  USELESS:          0
ITLB USEFUL LOAD PREFETCHES:          0 PREFETCH ISSUED TO LOWER LEVEL:          0  ACCURACY: -nan
ITLB TIMELY PREFETCHES:          0 LATE PREFETCHES: 0 DROPPED PREFETCHES: 0
ITLB PREFETCHES SAME FILL-ORIGIN LEVEL: 0 DIFFERENT FILL-ORIGIN LEVEL: 0
ITLB AVERAGE MISS LATENCY: -nan cycles
ITLB RQ	ACCESS:   15950876	FORWARD:          0	MERGED:          0	TO_CACHE:   15950876

DTLB TOTAL     ACCESS:   21854261  HIT:   21848672  MISS:       5589  HIT %:    99.9744  MISS %:   0.025574   MPKI: 0.05589
DTLB LOAD TRANSLATION ACCESS:   21854261  HIT:   21848672  MISS:       5589  HIT %:    99.9744  MISS %:   0.025574   MPKI: 0.05589
DTLB PREFETCH  REQUESTED:          0  ISSUED:          0  USEFUL:          0  USELESS:          0
DTLB USEFUL LOAD PREFETCHES:          0 PREFETCH ISSUED TO LOWER LEVEL:          0  ACCURACY: -nan
DTLB TIMELY PREFETCHES:          0 LATE PREFETCHES: 0 DROPPED PREFETCHES: 0
DTLB PREFETCHES SAME FILL-ORIGIN LEVEL: 0 DIFFERENT FILL-ORIGIN LEVEL: 0
DTLB AVERAGE MISS LATENCY: 145.246 cycles
DTLB RQ	ACCESS:   21931139	FORWARD:          0	MERGED:      70149	TO_CACHE:   21860990

STLB TOTAL     ACCESS:       5589  HIT:          0  MISS:       5589  HIT %:          0  MISS %:        100   MPKI: 0.05589
STLB LOAD TRANSLATION ACCESS:       5589  HIT:          0  MISS:       5589  HIT %:          0  MISS %:        100   MPKI: 0.05589
STLB PREFETCH  REQUESTED:          0  ISSUED:          0  USEFUL:          0  USELESS:          0
STLB USEFUL LOAD PREFETCHES:          0 PREFETCH ISSUED TO LOWER LEVEL:          0  ACCURACY: -nan
STLB TIMELY PREFETCHES:          0 LATE PREFETCHES: 0 DROPPED PREFETCHES: 0
STLB PREFETCHES SAME FILL-ORIGIN LEVEL: 0 DIFFERENT FILL-ORIGIN LEVEL: 0
STLB AVERAGE MISS LATENCY: 136.246 cycles
STLB RQ	ACCESS:       5589	FORWARD:          0	MERGED:          0	TO_CACHE:       5589

STLB Hit, L1D data hit: 0
STLB Hit, L2C data hit: 0
STLB Hit, LLC data hit: 0
STLB Hit, LLC data miss: 0
STLB STLB hints to L2: 0
L1D TOTAL     ACCESS:   19669172  HIT:   19311520  MISS:     357652  HIT %:    98.1817  MISS %:    1.81834   MPKI: 3.57652
L1D LOAD      ACCESS:   10034366  HIT:    9855540  MISS:     178826  HIT %:    98.2179  MISS %:    1.78214   MPKI: 1.78826
L1D RFO       ACCESS:    9634806  HIT:    9455980  MISS:     178826  HIT %:     98.144  MISS %:    1.85604   MPKI: 1.78826
L1D PREFETCH  REQUESTED:          0  ISSUED:          0  USEFUL:          0  USELESS:          0
L1D USEFUL LOAD PREFETCHES:          0 PREFETCH ISSUED TO LOWER LEVEL:          0  ACCURACY: -nan
L1D TIMELY PREFETCHES:          0 LATE PREFETCHES: 0 DROPPED PREFETCHES: 0
L1D PREFETCHES SAME FILL-ORIGIN LEVEL: 0 DIFFERENT FILL-ORIGIN LEVEL: 0
L1D AVERAGE MISS LATENCY: 168.844 cycles
L1D RQ	ACCESS:   21387780	FORWARD:          0	MERGED:   10901529	TO_CACHE:   10486251
L1D WQ	ACCESS:   11444888	FORWARD:          0	MERGED:          0	TO_CACHE:   11444888

L1D UNIQUE REGIONS ACCESSED: 0
L1D REGIONS CONFLICTS: 0
L1D Cross Page Prefetch Requests: 0
L1D Same Page Prefetch Requests: 0
L1D ROI Sum of L1D PQ occupancy: 0
L1D PREFETCHES PUSHED FROM L2C: 0
L1I TOTAL     ACCESS:   15950877  HIT:   15950877  MISS:          0  HIT %:        100  MISS %:          0   MPKI: 0
L1I LOAD      ACCESS:   15950877  HIT:   15950877  MISS:          0  HIT %:        100  MISS %:          0   MPKI: 0
L1I PREFETCH  REQUESTED:          0  ISSUED:          0  USEFUL:          0  USELESS:          0
L1I USEFUL LOAD PREFETCHES:          0 PREFETCH ISSUED TO LOWER LEVEL:          0  ACCURACY: -nan
L1I TIMELY PREFETCHES:          0 LATE PREFETCHES: 0 DROPPED PREFETCHES: 0
L1I PREFETCHES SAME FILL-ORIGIN LEVEL: 0 DIFFERENT FILL-ORIGIN LEVEL: 0
L1I AVERAGE MISS LATENCY: -nan cycles
L1I RQ	ACCESS:   28897753	FORWARD:          0	MERGED:   12946877	TO_CACHE:   15950876

BTB TOTAL     ACCESS:   22889775  HIT:   22889773  MISS:          2  HIT %:        100  MISS %: 8.73753e-06   MPKI: 2e-05
BTB BRANCH_DIRECT_JUMP	ACCESS:          0  HIT:          0  MISS:          0
BTB BRANCH_INDIRECT	ACCESS:          0  HIT:          0  MISS:          0
BTB BRANCH_CONDITIONAL	ACCESS:   22889775  HIT:   22889773  MISS:          2
BTB BRANCH_DIRECT_CALL	ACCESS:          0  HIT:          0  MISS:          0
BTB BRANCH_INDIRECT_CALL	ACCESS:          0  HIT:          0  MISS:          0
BTB BRANCH_RETURN	ACCESS:          0  HIT:          0  MISS:          0
BTB BRANCH_OTHER ACCESS:          0  HIT:          0  MISS:          0

L2C TOTAL     ACCESS:     542067  HIT:     183705  MISS:     358362  HIT %:    33.8897  MISS %:    66.1103   MPKI: 3.58362
L2C LOAD      ACCESS:     178826  HIT:          0  MISS:     178826  HIT %:          0  MISS %:        100   MPKI: 1.78826
L2C DATA LOAD MPKI: 1.78826
L2C INSTRUCTION LOAD MPKI: 0
L2C RFO       ACCESS:     178826  HIT:          0  MISS:     178826  HIT %:          0  MISS %:        100   MPKI: 1.78826
L2C WRITEBACK ACCESS:     178826  HIT:     178826  MISS:          0  HIT %:        100  MISS %:          0   MPKI: 0
L2C LOAD TRANSLATION ACCESS:       5589  HIT:       4879  MISS:        710  HIT %:    87.2965  MISS %:    12.7035   MPKI: 0.0071
L2C PREFETCH  REQUESTED:          0  ISSUED:          0  USEFUL:          0  USELESS:          0
L2C USEFUL LOAD PREFETCHES:          0 PREFETCH ISSUED TO LOWER LEVEL:          0  ACCURACY: -nan
L2C TIMELY PREFETCHES:          0 LATE PREFETCHES: 0 DROPPED PREFETCHES: 0
L2C PREFETCHES SAME FILL-ORIGIN LEVEL: 0 DIFFERENT FILL-ORIGIN LEVEL: 0
L2C AVERAGE MISS LATENCY: 153.933 cycles
L2C RQ	ACCESS:     363241	FORWARD:          0	MERGED:          0	TO_CACHE:     363241
L2C WQ	ACCESS:     178826	FORWARD:          0	MERGED:          0	TO_CACHE:     178826

L2C Instructions Evicting Data 0
L2C Translations Evicting Data 710
L2C Data Evicting Data 356943
L2C Instructions Evicting Instructions 0
L2C Translations Evicting Instructions 0
L2C Data Evicting Instructions 0
L2C Instructions Evicting Translations 0
L2C Translations Evicting Translations 0
L2C Data Evicting Translations 709
L2C Dense regions hint from L2: 0
PSCL5 TOTAL     ACCESS:       5589  HIT:       5589  MISS:          0  HIT %:        100  MISS %:          0   MPKI: 0
PSCL5 LOAD TRANSLATION ACCESS:       5589  HIT:       5589  MISS:          0  HIT %:        100  MISS %:          0   MPKI: 0
PSCL5 PREFETCH  REQUESTED:          0  ISSUED:          0  USEFUL:          0  USELESS:          0
PSCL5 USEFUL LOAD PREFETCHES:          0 PREFETCH ISSUED TO LOWER LEVEL:          0  ACCURACY: -nan
PSCL5 TIMELY PREFETCHES:          0 LATE PREFETCHES: 0 DROPPED PREFETCHES: 0
PSCL5 PREFETCHES SAME FILL-ORIGIN LEVEL: 0 DIFFERENT FILL-ORIGIN LEVEL: 0

PSCL4 TOTAL     ACCESS:       5589  HIT:       5589  MISS:          0  HIT %:        100  MISS %:          0   MPKI: 0
PSCL4 LOAD TRANSLATION ACCESS:       5589  HIT:       5589  MISS:          0  HIT %:        100  MISS %:          0   MPKI: 0
PSCL4 PREFETCH  REQUESTED:          0  ISSUED:          0  USEFUL:          0  USELESS:          0
PSCL4 USEFUL LOAD PREFETCHES:          0 PREFETCH ISSUED TO LOWER LEVEL:          0  ACCURACY: -nan
PSCL4 TIMELY PREFETCHES:          0 LATE PREFETCHES: 0 DROPPED PREFETCHES: 0
PSCL4 PREFETCHES SAME FILL-ORIGIN LEVEL: 0 DIFFERENT FILL-ORIGIN LEVEL: 0

PSCL3 TOTAL     ACCESS:       5589  HIT:       5589  MISS:          0  HIT %:        100  MISS %:          0   MPKI: 0
PSCL3 LOAD TRANSLATION ACCESS:       5589  HIT:       5589  MISS:          0  HIT %:        100  MISS %:          0   MPKI: 0
PSCL3 PREFETCH  REQUESTED:          0  ISSUED:          0  USEFUL:          0  USELESS:          0
PSCL3 USEFUL LOAD PREFETCHES:          0 PREFETCH ISSUED TO LOWER LEVEL:          0  ACCURACY: -nan
PSCL3 TIMELY PREFETCHES:          0 LATE PREFETCHES: 0 DROPPED PREFETCHES: 0
PSCL3 PREFETCHES SAME FILL-ORIGIN LEVEL: 0 DIFFERENT FILL-ORIGIN LEVEL: 0

PSCL2 TOTAL     ACCESS:       5589  HIT:       5578  MISS:         11  HIT %:    99.8032  MISS %:   0.196815   MPKI: 0.00011
PSCL2 LOAD TRANSLATION ACCESS:       5589  HIT:       5578  MISS:         11  HIT %:    99.8032  MISS %:   0.196815   MPKI: 0.00011
PSCL2 PREFETCH  REQUESTED:          0  ISSUED:          0  USEFUL:          0  USELESS:          0
PSCL2 USEFUL LOAD PREFETCHES:          0 PREFETCH ISSUED TO LOWER LEVEL:          0  ACCURACY: -nan
PSCL2 TIMELY PREFETCHES:          0 LATE PREFETCHES: 0 DROPPED PREFETCHES: 0
PSCL2 PREFETCHES SAME FILL-ORIGIN LEVEL: 0 DIFFERENT FILL-ORIGIN LEVEL: 0

LLC TOTAL     ACCESS:     537185  HIT:     178823  MISS:     358362  HIT %:    33.2889  MISS %:    66.7111   MPKI: 3.58362
LLC LOAD      ACCESS:     178826  HIT:          0  MISS:     178826  HIT %:          0  MISS %:        100   MPKI: 1.78826
LLC RFO       ACCESS:     178826  HIT:          0  MISS:     178826  HIT %:          0  MISS %:        100   MPKI: 1.78826
LLC WRITEBACK ACCESS:     178823  HIT:     178823  MISS:          0  HIT %:        100  MISS %:          0   MPKI: 0
LLC LOAD TRANSLATION ACCESS:        710  HIT:          0  MISS:        710  HIT %:          0  MISS %:        100   MPKI: 0.0071
LLC PREFETCH  REQUESTED:          0  ISSUED:          0  USEFUL:          0  USELESS:          0
LLC USEFUL LOAD PREFETCHES:          0 PREFETCH ISSUED TO LOWER LEVEL:          0  ACCURACY: -nan
LLC TIMELY PREFETCHES:          0 LATE PREFETCHES: 0 DROPPED PREFETCHES: 0
LLC PREFETCHES SAME FILL-ORIGIN LEVEL: 0 DIFFERENT FILL-ORIGIN LEVEL: 0
LLC AVERAGE MISS LATENCY: 123.933 cycles
LLC RQ	ACCESS:     358362	FORWARD:          0	MERGED:          0	TO_CACHE:     358362
LLC WQ	ACCESS:     178823	FORWARD:          0	MERGED:          0	TO_CACHE:     178823

LLC Dense regions hint to LLC: 0

RAW hits: 0
Loads Generated: 21387781
Loads sent to L1D: 21387780
Stores Generated: 11444887
Stores sent to L1D: 11444888
Major fault: 0 Minor fault: 11212
Allocated PAGES: 11212

DRAM Statistics
 CHANNEL 0
 RQ ROW_BUFFER_HIT:     165087  ROW_BUFFER_MISS:     193275
 DBUS_CONGESTED:          0
 WQ ROW_BUFFER_HIT:       6460  ROW_BUFFER_MISS:     172331  FULL:          0

 AVG_CONGESTED_CYCLE: -
 All warmup complete: 2
Channel 0 Bank busy for read cycles: 0
Channel 0 Bank busy for write cycles: 0
Channel 0
Rank 0
0banks busy for read cycles: 145065155
0banks busy for write cycles: 171880
1banks busy for read cycles: 37205072
1banks busy for write cycles: 26169781
2banks busy for read cycles: 20264
2banks busy for write cycles: 859887
3banks busy for read cycles: 0
3banks busy for write cycles: 155
4banks busy for read cycles: 0
4banks busy for write cycles: 0
5banks busy for read cycles: 0
5banks busy for write cycles: 0
6banks busy for read cycles: 0
6banks busy for write cycles: 0
7banks busy for read cycles: 0
7banks busy for write cycles: 0
8banks busy for read cycles: 0
8banks busy for write cycles: 0

CPU 0 Branch Prediction Accuracy: 93.4381% MPKI: 15.02 Average ROB Occupancy at Mispredict: 14.215
Branch types
NOT_BRANCH: 77110220 77.1102%
BRANCH_DIRECT_JUMP: 0 0%
BRANCH_INDIRECT: 0 0%
BRANCH_CONDITIONAL: 22889776 22.8898%
BRANCH_DIRECT_CALL: 0 0%
BRANCH_INDIRECT_CALL: 0 0%
BRANCH_RETURN: 0 0%
BRANCH_OTHER: 0 0%

DRAM PAGES: 1048576
Allocated PAGES: 11212
