
*** ChampSim Multicore Out-of-Order Simulator ***

Warmup Instructions: 100000000
Simulation Instructions: 100000000
Number of CPUs: 1
LLC sets: 2048
LLC ways: 16
Off-chip DRAM Size: 4096 MB Channels: 1 Width: 64-bit Data Rate: 6400 MT/s
CPU 0 runs ../Ligra/ligra_BC.com-lj.ungraph.gcc_6.3.0_O3.drop_26750M.length_250M.champsimtrace.xz
.xz
CPU 0 Bimodal branch predictor
BTB has LRU replacement policy
ITLB has LRU replacement policy
DTLB has LRU replacement policy
STLB has LRU replacement policy
L1I has LRU replacement policy
L1D has LRU replacement policy
L2C has LRU replacement policy
LLC has LRU replacement policy
Heartbeat CPU 0 instructions: 10000003 cycles: 3333425 heartbeat IPC: 2.99992 cumulative IPC: 2.99992 (Simulation time: 0 hr 0 min 4 sec) 
Heartbeat CPU 0 instructions: 20000000 cycles: 6666755 heartbeat IPC: 3 cumulative IPC: 2.99996 (Simulation time: 0 hr 0 min 8 sec) 
Heartbeat CPU 0 instructions: 30000003 cycles: 9999744 heartbeat IPC: 3.00031 cumulative IPC: 3.00008 (Simulation time: 0 hr 0 min 12 sec) 
Heartbeat CPU 0 instructions: 40000003 cycles: 13331776 heartbeat IPC: 3.00117 cumulative IPC: 3.00035 (Simulation time: 0 hr 0 min 16 sec) 
Heartbeat CPU 0 instructions: 50000000 cycles: 16664022 heartbeat IPC: 3.00098 cumulative IPC: 3.00048 (Simulation time: 0 hr 0 min 20 sec) 
Heartbeat CPU 0 instructions: 60000000 cycles: 19996595 heartbeat IPC: 3.00068 cumulative IPC: 3.00051 (Simulation time: 0 hr 0 min 24 sec) 
Heartbeat CPU 0 instructions: 70000000 cycles: 23329135 heartbeat IPC: 3.00071 cumulative IPC: 3.00054 (Simulation time: 0 hr 0 min 28 sec) 
Heartbeat CPU 0 instructions: 80000000 cycles: 26661754 heartbeat IPC: 3.00064 cumulative IPC: 3.00055 (Simulation time: 0 hr 0 min 33 sec) 
Heartbeat CPU 0 instructions: 90000000 cycles: 29995087 heartbeat IPC: 3 cumulative IPC: 3.00049 (Simulation time: 0 hr 0 min 41 sec) 
Heartbeat CPU 0 instructions: 100000003 cycles: 33328421 heartbeat IPC: 3 cumulative IPC: 3.00044 (Simulation time: 0 hr 0 min 49 sec) 

Warmup complete CPU 0 instructions: 100000003 cycles: 33328421 (Simulation time: 0 hr 0 min 49 sec) 

Heartbeat CPU 0 instructions: 110000000 cycles: 70229461 heartbeat IPC: 0.270995 cumulative IPC: 0.270995 (Simulation time: 0 hr 1 min 18 sec) 
Heartbeat CPU 0 instructions: 120000003 cycles: 112216910 heartbeat IPC: 0.238166 cumulative IPC: 0.253522 (Simulation time: 0 hr 1 min 40 sec) 
Heartbeat CPU 0 instructions: 130000002 cycles: 148847421 heartbeat IPC: 0.272996 cumulative IPC: 0.259698 (Simulation time: 0 hr 1 min 58 sec) 
Heartbeat CPU 0 instructions: 140000001 cycles: 188942443 heartbeat IPC: 0.249408 cumulative IPC: 0.257046 (Simulation time: 0 hr 2 min 17 sec) 
Heartbeat CPU 0 instructions: 150000000 cycles: 233987808 heartbeat IPC: 0.221998 cumulative IPC: 0.249178 (Simulation time: 0 hr 2 min 38 sec) 
Heartbeat CPU 0 instructions: 160000003 cycles: 280253404 heartbeat IPC: 0.216143 cumulative IPC: 0.242989 (Simulation time: 0 hr 2 min 59 sec) 
Heartbeat CPU 0 instructions: 170000001 cycles: 329261618 heartbeat IPC: 0.204047 cumulative IPC: 0.23654 (Simulation time: 0 hr 3 min 20 sec) 
Heartbeat CPU 0 instructions: 180000000 cycles: 380075789 heartbeat IPC: 0.196795 cumulative IPC: 0.230716 (Simulation time: 0 hr 3 min 42 sec) 
Heartbeat CPU 0 instructions: 190000001 cycles: 434822178 heartbeat IPC: 0.18266 cumulative IPC: 0.224163 (Simulation time: 0 hr 4 min 5 sec) 
Heartbeat CPU 0 instructions: 200000001 cycles: 491969056 heartbeat IPC: 0.174988 cumulative IPC: 0.218036 (Simulation time: 0 hr 4 min 29 sec) 
Finished CPU 0 instructions: 100000002 cycles: 458640636 cumulative IPC: 0.218036 (Simulation time: 0 hr 4 min 29 sec) 

ChampSim completed all CPUs

Region of Interest Statistics

CPU 0 cumulative IPC: 0.218036 instructions: 100000002 cycles: 458640636
ITLB TOTAL     ACCESS:   17110815  HIT:   17110814  MISS:          1  HIT %:        100  MISS %: 5.84426e-06   MPKI: 1e-05
ITLB LOAD TRANSLATION ACCESS:   17110815  HIT:   17110814  MISS:          1  HIT %:        100  MISS %: 5.84426e-06   MPKI: 1e-05
ITLB PREFETCH  REQUESTED:          0  ISSUED:          0  USEFUL:          0  USELESS:          0
ITLB USEFUL LOAD PREFETCHES:          0 PREFETCH ISSUED TO LOWER LEVEL:          0  ACCURACY: -nan
ITLB TIMELY PREFETCHES:          0 LATE PREFETCHES: 0 DROPPED PREFETCHES: 0
ITLB PREFETCHES SAME FILL-ORIGIN LEVEL: 0 DIFFERENT FILL-ORIGIN LEVEL: 0
ITLB AVERAGE MISS LATENCY: 1042 cycles
ITLB RQ	ACCESS:   20026935	FORWARD:          0	MERGED:    2916121	TO_CACHE:   17110814

DTLB TOTAL     ACCESS:   29467697  HIT:   27955664  MISS:    1512033  HIT %:    94.8688  MISS %:    5.13115   MPKI: 15.1203
DTLB LOAD TRANSLATION ACCESS:   29467697  HIT:   27955664  MISS:    1512033  HIT %:    94.8688  MISS %:    5.13115   MPKI: 15.1203
DTLB PREFETCH  REQUESTED:          0  ISSUED:          0  USEFUL:          0  USELESS:          0
DTLB USEFUL LOAD PREFETCHES:          0 PREFETCH ISSUED TO LOWER LEVEL:          0  ACCURACY: -nan
DTLB TIMELY PREFETCHES:          0 LATE PREFETCHES: 0 DROPPED PREFETCHES: 0
DTLB PREFETCHES SAME FILL-ORIGIN LEVEL: 0 DIFFERENT FILL-ORIGIN LEVEL: 0
DTLB AVERAGE MISS LATENCY: 21.6549 cycles
DTLB RQ	ACCESS:   31890334	FORWARD:          0	MERGED:    2386818	TO_CACHE:   29503516

STLB TOTAL     ACCESS:    1512034  HIT:    1082470  MISS:     429564  HIT %:    71.5903  MISS %:    28.4097   MPKI: 4.29564
STLB LOAD TRANSLATION ACCESS:    1512034  HIT:    1082470  MISS:     429564  HIT %:    71.5903  MISS %:    28.4097   MPKI: 4.29564
STLB PREFETCH  REQUESTED:          0  ISSUED:          0  USEFUL:          0  USELESS:          0
STLB USEFUL LOAD PREFETCHES:          0 PREFETCH ISSUED TO LOWER LEVEL:          0  ACCURACY: -nan
STLB TIMELY PREFETCHES:          0 LATE PREFETCHES: 0 DROPPED PREFETCHES: 0
STLB PREFETCHES SAME FILL-ORIGIN LEVEL: 0 DIFFERENT FILL-ORIGIN LEVEL: 0
STLB AVERAGE MISS LATENCY: 44.1879 cycles
STLB RQ	ACCESS:    1512034	FORWARD:          0	MERGED:          0	TO_CACHE:    1512034

STLB Hit, L1D data hit: 0
STLB Hit, L2C data hit: 0
STLB Hit, LLC data hit: 0
STLB Hit, LLC data miss: 0
STLB STLB hints to L2: 0
L1D TOTAL     ACCESS:   28746338  HIT:   25206933  MISS:    3539405  HIT %:    87.6875  MISS %:    12.3125   MPKI: 35.394
L1D LOAD      ACCESS:   21593934  HIT:   18330198  MISS:    3263736  HIT %:    84.8859  MISS %:    15.1141   MPKI: 32.6374
L1D RFO       ACCESS:    7152404  HIT:    6876735  MISS:     275669  HIT %:    96.1458  MISS %:    3.85421   MPKI: 2.75669
L1D PREFETCH  REQUESTED:          0  ISSUED:          0  USEFUL:          0  USELESS:          0
L1D USEFUL LOAD PREFETCHES:          0 PREFETCH ISSUED TO LOWER LEVEL:          0  ACCURACY: -nan
L1D TIMELY PREFETCHES:          0 LATE PREFETCHES: 0 DROPPED PREFETCHES: 0
L1D PREFETCHES SAME FILL-ORIGIN LEVEL: 0 DIFFERENT FILL-ORIGIN LEVEL: 0
L1D AVERAGE MISS LATENCY: 197.232 cycles
L1D RQ	ACCESS:   32654623	FORWARD:          0	MERGED:   10036152	TO_CACHE:   22589829
L1D WQ	ACCESS:    9753420	FORWARD:      28642	MERGED:     452915	TO_CACHE:    9300505

L1D UNIQUE REGIONS ACCESSED: 0
L1D REGIONS CONFLICTS: 0
L1D Cross Page Prefetch Requests: 0
L1D Same Page Prefetch Requests: 0
L1D ROI Sum of L1D PQ occupancy: 0
L1D PREFETCHES PUSHED FROM L2C: 0
L1I TOTAL     ACCESS:   20026933  HIT:   20026909  MISS:         24  HIT %:    99.9999  MISS %: 0.000119839   MPKI: 0.00024
L1I LOAD      ACCESS:   20026933  HIT:   20026909  MISS:         24  HIT %:    99.9999  MISS %: 0.000119839   MPKI: 0.00024
L1I PREFETCH  REQUESTED:          0  ISSUED:          0  USEFUL:          0  USELESS:          0
L1I USEFUL LOAD PREFETCHES:          0 PREFETCH ISSUED TO LOWER LEVEL:          0  ACCURACY: -nan
L1I TIMELY PREFETCHES:          0 LATE PREFETCHES: 0 DROPPED PREFETCHES: 0
L1I PREFETCHES SAME FILL-ORIGIN LEVEL: 0 DIFFERENT FILL-ORIGIN LEVEL: 0
L1I AVERAGE MISS LATENCY: 205.667 cycles
L1I RQ	ACCESS:   28221290	FORWARD:          0	MERGED:    8194355	TO_CACHE:   20026935

BTB TOTAL     ACCESS:   16874710  HIT:   16874583  MISS:        127  HIT %:    99.9992  MISS %: 0.000752606   MPKI: 0.00127
BTB BRANCH_DIRECT_JUMP	ACCESS:     739824  HIT:     739798  MISS:         26
BTB BRANCH_INDIRECT	ACCESS:          0  HIT:          0  MISS:          0
BTB BRANCH_CONDITIONAL	ACCESS:   16134857  HIT:   16134775  MISS:         82
BTB BRANCH_DIRECT_CALL	ACCESS:         15  HIT:          5  MISS:         10
BTB BRANCH_INDIRECT_CALL	ACCESS:          0  HIT:          0  MISS:          0
BTB BRANCH_RETURN	ACCESS:         14  HIT:          5  MISS:          9
BTB BRANCH_OTHER ACCESS:          0  HIT:          0  MISS:          0

L2C TOTAL     ACCESS:    4435301  HIT:    1055949  MISS:    3379352  HIT %:    23.8078  MISS %:    76.1922   MPKI: 33.7935
L2C LOAD      ACCESS:    3263759  HIT:     218893  MISS:    3044866  HIT %:    6.70678  MISS %:    93.2932   MPKI: 30.4487
L2C DATA LOAD MPKI: 30.4484
L2C INSTRUCTION LOAD MPKI: 0.00024
L2C RFO       ACCESS:     275669  HIT:          0  MISS:     275669  HIT %:          0  MISS %:        100   MPKI: 2.75669
L2C WRITEBACK ACCESS:     466218  HIT:     466217  MISS:          1  HIT %:    99.9998  MISS %: 0.000214492   MPKI: 1e-05
L2C LOAD TRANSLATION ACCESS:     429655  HIT:     370839  MISS:      58816  HIT %:    86.3109  MISS %:    13.6891   MPKI: 0.58816
L2C PREFETCH  REQUESTED:          0  ISSUED:          0  USEFUL:          0  USELESS:          0
L2C USEFUL LOAD PREFETCHES:          0 PREFETCH ISSUED TO LOWER LEVEL:          0  ACCURACY: -nan
L2C TIMELY PREFETCHES:          0 LATE PREFETCHES: 0 DROPPED PREFETCHES: 0
L2C PREFETCHES SAME FILL-ORIGIN LEVEL: 0 DIFFERENT FILL-ORIGIN LEVEL: 0
L2C AVERAGE MISS LATENCY: 192.108 cycles
L2C RQ	ACCESS:    3969086	FORWARD:          0	MERGED:          0	TO_CACHE:    3969085
L2C WQ	ACCESS:     466218	FORWARD:          1	MERGED:          0	TO_CACHE:     466218

L2C Instructions Evicting Data 24
L2C Translations Evicting Data 57929
L2C Data Evicting Data 3263189
L2C Instructions Evicting Instructions 0
L2C Translations Evicting Instructions 0
L2C Data Evicting Instructions 24
L2C Instructions Evicting Translations 0
L2C Translations Evicting Translations 887
L2C Data Evicting Translations 57298
L2C Dense regions hint from L2: 0
PSCL5 TOTAL     ACCESS:     429564  HIT:     429564  MISS:          0  HIT %:        100  MISS %:          0   MPKI: 0
PSCL5 LOAD TRANSLATION ACCESS:     429564  HIT:     429564  MISS:          0  HIT %:        100  MISS %:          0   MPKI: 0
PSCL5 PREFETCH  REQUESTED:          0  ISSUED:          0  USEFUL:          0  USELESS:          0
PSCL5 USEFUL LOAD PREFETCHES:          0 PREFETCH ISSUED TO LOWER LEVEL:          0  ACCURACY: -nan
PSCL5 TIMELY PREFETCHES:          0 LATE PREFETCHES: 0 DROPPED PREFETCHES: 0
PSCL5 PREFETCHES SAME FILL-ORIGIN LEVEL: 0 DIFFERENT FILL-ORIGIN LEVEL: 0

PSCL4 TOTAL     ACCESS:     429564  HIT:     429564  MISS:          0  HIT %:        100  MISS %:          0   MPKI: 0
PSCL4 LOAD TRANSLATION ACCESS:     429564  HIT:     429564  MISS:          0  HIT %:        100  MISS %:          0   MPKI: 0
PSCL4 PREFETCH  REQUESTED:          0  ISSUED:          0  USEFUL:          0  USELESS:          0
PSCL4 USEFUL LOAD PREFETCHES:          0 PREFETCH ISSUED TO LOWER LEVEL:          0  ACCURACY: -nan
PSCL4 TIMELY PREFETCHES:          0 LATE PREFETCHES: 0 DROPPED PREFETCHES: 0
PSCL4 PREFETCHES SAME FILL-ORIGIN LEVEL: 0 DIFFERENT FILL-ORIGIN LEVEL: 0

PSCL3 TOTAL     ACCESS:     429564  HIT:     429564  MISS:          0  HIT %:        100  MISS %:          0   MPKI: 0
PSCL3 LOAD TRANSLATION ACCESS:     429564  HIT:     429564  MISS:          0  HIT %:        100  MISS %:          0   MPKI: 0
PSCL3 PREFETCH  REQUESTED:          0  ISSUED:          0  USEFUL:          0  USELESS:          0
PSCL3 USEFUL LOAD PREFETCHES:          0 PREFETCH ISSUED TO LOWER LEVEL:          0  ACCURACY: -nan
PSCL3 TIMELY PREFETCHES:          0 LATE PREFETCHES: 0 DROPPED PREFETCHES: 0
PSCL3 PREFETCHES SAME FILL-ORIGIN LEVEL: 0 DIFFERENT FILL-ORIGIN LEVEL: 0

PSCL2 TOTAL     ACCESS:     429564  HIT:     429375  MISS:        189  HIT %:     99.956  MISS %:  0.0439981   MPKI: 0.00189
PSCL2 LOAD TRANSLATION ACCESS:     429564  HIT:     429375  MISS:        189  HIT %:     99.956  MISS %:  0.0439981   MPKI: 0.00189
PSCL2 PREFETCH  REQUESTED:          0  ISSUED:          0  USEFUL:          0  USELESS:          0
PSCL2 USEFUL LOAD PREFETCHES:          0 PREFETCH ISSUED TO LOWER LEVEL:          0  ACCURACY: -nan
PSCL2 TIMELY PREFETCHES:          0 LATE PREFETCHES: 0 DROPPED PREFETCHES: 0
PSCL2 PREFETCHES SAME FILL-ORIGIN LEVEL: 0 DIFFERENT FILL-ORIGIN LEVEL: 0

LLC TOTAL     ACCESS:    3848101  HIT:     829991  MISS:    3018110  HIT %:    21.5688  MISS %:    78.4312   MPKI: 30.1811
LLC LOAD      ACCESS:    3044866  HIT:     322561  MISS:    2722305  HIT %:    10.5936  MISS %:    89.4064   MPKI: 27.223
LLC RFO       ACCESS:     275669  HIT:          0  MISS:     275669  HIT %:          0  MISS %:        100   MPKI: 2.75669
LLC WRITEBACK ACCESS:     468750  HIT:     468742  MISS:          8  HIT %:    99.9983  MISS %: 0.00170667   MPKI: 8e-05
LLC LOAD TRANSLATION ACCESS:      58816  HIT:      38688  MISS:      20128  HIT %:     65.778  MISS %:     34.222   MPKI: 0.20128
LLC PREFETCH  REQUESTED:          0  ISSUED:          0  USEFUL:          0  USELESS:          0
LLC USEFUL LOAD PREFETCHES:          0 PREFETCH ISSUED TO LOWER LEVEL:          0  ACCURACY: -nan
LLC TIMELY PREFETCHES:          0 LATE PREFETCHES: 0 DROPPED PREFETCHES: 0
LLC PREFETCHES SAME FILL-ORIGIN LEVEL: 0 DIFFERENT FILL-ORIGIN LEVEL: 0
LLC AVERAGE MISS LATENCY: 180.968 cycles
LLC RQ	ACCESS:    3379353	FORWARD:          0	MERGED:          0	TO_CACHE:    3379353
LLC WQ	ACCESS:     468750	FORWARD:          0	MERGED:          0	TO_CACHE:     468750

LLC Dense regions hint to LLC: 0

RAW hits: 2837835
Loads Generated: 35492460
Loads sent to L1D: 32654623
Stores Generated: 9753417
Stores sent to L1D: 9753420
Major fault: 0 Minor fault: 66170
Allocated PAGES: 66170

DRAM Statistics
 CHANNEL 0
 RQ ROW_BUFFER_HIT:     422977  ROW_BUFFER_MISS:    2595124
 DBUS_CONGESTED:        378
 WQ ROW_BUFFER_HIT:     129685  ROW_BUFFER_MISS:     347117  FULL:          0

 AVG_CONGESTED_CYCLE: 4
 All warmup complete: 2
Channel 0 Bank busy for read cycles: 0
Channel 0 Bank busy for write cycles: 0
Channel 0
Rank 0
0banks busy for read cycles: 167362791
0banks busy for write cycles: 180353
1banks busy for read cycles: 149033648
1banks busy for write cycles: 31469381
2banks busy for read cycles: 59369042
2banks busy for write cycles: 5936466
3banks busy for read cycles: 20307738
3banks busy for write cycles: 1022191
4banks busy for read cycles: 7938788
4banks busy for write cycles: 197673
5banks busy for read cycles: 4111832
5banks busy for write cycles: 73935
6banks busy for read cycles: 2688890
6banks busy for write cycles: 57778
7banks busy for read cycles: 1535074
7banks busy for write cycles: 382723
8banks busy for read cycles: 432488
8banks busy for write cycles: 6539846

CPU 0 Branch Prediction Accuracy: 86.8059% MPKI: 28.8391 Average ROB Occupancy at Mispredict: 24.6789
Branch types
NOT_BRANCH: 78142510 78.1425%
BRANCH_DIRECT_JUMP: 739824 0.739824%
BRANCH_INDIRECT: 0 0%
BRANCH_CONDITIONAL: 21117665 21.1177%
BRANCH_DIRECT_CALL: 15 1.5e-05%
BRANCH_INDIRECT_CALL: 0 0%
BRANCH_RETURN: 14 1.4e-05%
BRANCH_OTHER: 0 0%

DRAM PAGES: 1048576
Allocated PAGES: 66170
