
*** ChampSim Multicore Out-of-Order Simulator ***

Warmup Instructions: 25000000
Simulation Instructions: 25000000
Number of CPUs: 1
LLC sets: 2048
LLC ways: 16
Off-chip DRAM Size: 4096 MB Channels: 1 Width: 64-bit Data Rate: 6400 MT/s
CPU 0 runs ../traces/bc-0.trace.gz
.gz
CPU 0 Bimodal branch predictor
BTB has LRU replacement policy
ITLB has LRU replacement policy
DTLB has LRU replacement policy
STLB has LRU replacement policy
L1I has LRU replacement policy
CPU 0 L1D - Pythia Preftecher 
L1D has LRU replacement policy
L2C has LRU replacement policy
LLC has LRU replacement policy
Heartbeat CPU 0 instructions: 10000002 cycles: 3491106 heartbeat IPC: 2.86442 cumulative IPC: 2.86442 (Simulation time: 0 hr 0 min 52 sec) 
Heartbeat CPU 0 instructions: 20000000 cycles: 6432314 heartbeat IPC: 3.39996 cumulative IPC: 3.1093 (Simulation time: 0 hr 1 min 51 sec) 

Warmup complete CPU 0 instructions: 25000004 cycles: 7900440 (Simulation time: 0 hr 2 min 21 sec) 

Heartbeat CPU 0 instructions: 30000001 cycles: 46606774 heartbeat IPC: 0.248914 cumulative IPC: 0.129178 (Simulation time: 0 hr 3 min 5 sec) 
Heartbeat CPU 0 instructions: 40000002 cycles: 123954686 heartbeat IPC: 0.129286 cumulative IPC: 0.12925 (Simulation time: 0 hr 4 min 31 sec) 
Heartbeat CPU 0 instructions: 50000000 cycles: 201401602 heartbeat IPC: 0.129121 cumulative IPC: 0.129198 (Simulation time: 0 hr 5 min 58 sec) 
Finished CPU 0 instructions: 25000000 cycles: 193501163 cumulative IPC: 0.129198 (Simulation time: 0 hr 5 min 58 sec) 

ChampSim completed all CPUs

Region of Interest Statistics

CPU 0 cumulative IPC: 0.129198 instructions: 25000000 cycles: 193501163
ITLB TOTAL     ACCESS:    4533748  HIT:    4533748  MISS:          0  HIT %:        100  MISS %:          0   MPKI: 0
ITLB LOAD TRANSLATION ACCESS:    4533748  HIT:    4533748  MISS:          0  HIT %:        100  MISS %:          0   MPKI: 0
ITLB PREFETCH  REQUESTED:          0  ISSUED:          0  USEFUL:          0  USELESS:          0
ITLB USEFUL LOAD PREFETCHES:          0 PREFETCH ISSUED TO LOWER LEVEL:          0  ACCURACY: -nan
ITLB TIMELY PREFETCHES:          0 LATE PREFETCHES: 0 DROPPED PREFETCHES: 0
ITLB PREFETCHES SAME FILL-ORIGIN LEVEL: 0 DIFFERENT FILL-ORIGIN LEVEL: 0
ITLB AVERAGE MISS LATENCY: -nan cycles
ITLB RQ	ACCESS:    4678001	FORWARD:          0	MERGED:     144253	TO_CACHE:    4533748

DTLB TOTAL     ACCESS:    7062077  HIT:    6328190  MISS:     733887  HIT %:    89.6081  MISS %:    10.3919   MPKI: 29.3555
DTLB LOAD TRANSLATION ACCESS:    7062077  HIT:    6328190  MISS:     733887  HIT %:    89.6081  MISS %:    10.3919   MPKI: 29.3555
DTLB PREFETCH  REQUESTED:          0  ISSUED:          0  USEFUL:          0  USELESS:          0
DTLB USEFUL LOAD PREFETCHES:          0 PREFETCH ISSUED TO LOWER LEVEL:          0  ACCURACY: -nan
DTLB TIMELY PREFETCHES:          0 LATE PREFETCHES: 0 DROPPED PREFETCHES: 0
DTLB PREFETCHES SAME FILL-ORIGIN LEVEL: 0 DIFFERENT FILL-ORIGIN LEVEL: 0
DTLB AVERAGE MISS LATENCY: 24.9907 cycles
DTLB RQ	ACCESS:    7213172	FORWARD:          0	MERGED:      77314	TO_CACHE:    7135858

STLB TOTAL     ACCESS:    5844833  HIT:    5506568  MISS:     338265  HIT %:    94.2126  MISS %:    5.78742   MPKI: 13.5306
STLB LOAD TRANSLATION ACCESS:     733887  HIT:     395622  MISS:     338265  HIT %:    53.9078  MISS %:    46.0922   MPKI: 13.5306
STLB TRANSLATION FROM L1D PREFETCHER ACCESS:    5110946  HIT:    5110946  MISS:          0  HIT %:        100  MISS %:          0   MPKI: 0
STLB PREFETCH  REQUESTED:          0  ISSUED:          0  USEFUL:          0  USELESS:          0
STLB USEFUL LOAD PREFETCHES:          0 PREFETCH ISSUED TO LOWER LEVEL:          0  ACCURACY: -nan
STLB TIMELY PREFETCHES:          0 LATE PREFETCHES: 0 DROPPED PREFETCHES: 0
STLB PREFETCHES SAME FILL-ORIGIN LEVEL: 0 DIFFERENT FILL-ORIGIN LEVEL: 0
STLB AVERAGE MISS LATENCY: 34.5643 cycles
STLB RQ	ACCESS:   15361411	FORWARD:          0	MERGED:    9516578	TO_CACHE:    5844833

STLB Hit, L1D data hit: 0
STLB Hit, L2C data hit: 0
STLB Hit, LLC data hit: 0
STLB Hit, LLC data miss: 0
STLB STLB hints to L2: 0
L1D TOTAL     ACCESS:   19802479  HIT:   14906393  MISS:    4896086  HIT %:    75.2754  MISS %:    24.7246   MPKI: 195.843
L1D LOAD      ACCESS:    5876388  HIT:    4013084  MISS:    1863304  HIT %:    68.2917  MISS %:    31.7083   MPKI: 74.5322
L1D RFO       ACCESS:    1287984  HIT:    1276931  MISS:      11053  HIT %:    99.1418  MISS %:   0.858163   MPKI: 0.44212
L1D PREFETCH  ACCESS:   12638107  HIT:    9616378  MISS:    3021729  HIT %:    76.0903  MISS %:    23.9097   MPKI: 120.869
AGUS PREFETCH L1 MISS: 0
L1D PREFETCH  REQUESTED:   29776808  ISSUED:   29747012  USEFUL:     215208  USELESS:    2806347
L1D USEFUL LOAD PREFETCHES:     215208 PREFETCH ISSUED TO LOWER LEVEL:    3061558  ACCURACY: 7.02936
L1D TIMELY PREFETCHES:     215208 LATE PREFETCHES: 39822 DROPPED PREFETCHES: 0
L1D PREFETCHES SAME FILL-ORIGIN LEVEL: 3061558 DIFFERENT FILL-ORIGIN LEVEL: 0
L1D AVERAGE MISS LATENCY: 182.085 cycles
L1D RQ	ACCESS:    6661328	FORWARD:          0	MERGED:     715789	TO_CACHE:    5909912
L1D WQ	ACCESS:    1318211	FORWARD:      35662	MERGED:      14951	TO_CACHE:    1303260
L1D PQ	ACCESS:   15119488	FORWARD:          0	MERGED:     491929	TO_CACHE:   14627524

L1D UNIQUE REGIONS ACCESSED: 0
L1D REGIONS CONFLICTS: 0
L1D Cross Page Prefetch Requests: 0
L1D Same Page Prefetch Requests: 23443345
L1D ROI Sum of L1D PQ occupancy: 201006016
L1D PREFETCHES PUSHED FROM L2C: 0
L1I TOTAL     ACCESS:    4678001  HIT:    4678001  MISS:          0  HIT %:        100  MISS %:          0   MPKI: 0
L1I LOAD      ACCESS:    4678001  HIT:    4678001  MISS:          0  HIT %:        100  MISS %:          0   MPKI: 0
L1I PREFETCH  REQUESTED:          0  ISSUED:          0  USEFUL:          0  USELESS:          0
L1I USEFUL LOAD PREFETCHES:          0 PREFETCH ISSUED TO LOWER LEVEL:          0  ACCURACY: -nan
L1I TIMELY PREFETCHES:          0 LATE PREFETCHES: 0 DROPPED PREFETCHES: 0
L1I PREFETCHES SAME FILL-ORIGIN LEVEL: 0 DIFFERENT FILL-ORIGIN LEVEL: 0
L1I AVERAGE MISS LATENCY: -nan cycles
L1I RQ	ACCESS:    6316306	FORWARD:          0	MERGED:    1638305	TO_CACHE:    4678001

BTB TOTAL     ACCESS:    4695442  HIT:    4695428  MISS:         14  HIT %:    99.9997  MISS %: 0.000298161   MPKI: 0.00056
BTB BRANCH_DIRECT_JUMP	ACCESS:      95560  HIT:      95556  MISS:          4
BTB BRANCH_INDIRECT	ACCESS:          0  HIT:          0  MISS:          0
BTB BRANCH_CONDITIONAL	ACCESS:    4599872  HIT:    4599864  MISS:          8
BTB BRANCH_DIRECT_CALL	ACCESS:          5  HIT:          4  MISS:          1
BTB BRANCH_INDIRECT_CALL	ACCESS:          0  HIT:          0  MISS:          0
BTB BRANCH_RETURN	ACCESS:          5  HIT:          4  MISS:          1
BTB BRANCH_OTHER ACCESS:          0  HIT:          0  MISS:          0

L2C TOTAL     ACCESS:    5883346  HIT:    1172855  MISS:    4710491  HIT %:    19.9352  MISS %:    80.0648   MPKI: 188.42
L2C LOAD      ACCESS:    1823482  HIT:      93854  MISS:    1729628  HIT %:    5.14697  MISS %:     94.853   MPKI: 69.1851
L2C DATA LOAD MPKI: 69.1851
L2C INSTRUCTION LOAD MPKI: 0
L2C RFO       ACCESS:      11053  HIT:         74  MISS:      10979  HIT %:   0.669501  MISS %:    99.3305   MPKI: 0.43916
L2C PREFETCH  ACCESS:    3061550  HIT:     154516  MISS:    2907034  HIT %:    5.04699  MISS %:     94.953   MPKI: 116.281
AGUS PREFETCH L1 MISS: 0
L2C DATA PREFETCH MPKI: 116.281
L2C INSTRUCTION PREFETCH MPKI: 0
L2C WRITEBACK ACCESS:     648979  HIT:     647545  MISS:       1434  HIT %:     99.779  MISS %:   0.220962   MPKI: 0.05736
L2C LOAD TRANSLATION ACCESS:     338282  HIT:     276866  MISS:      61416  HIT %:    81.8447  MISS %:    18.1553   MPKI: 2.45664
L2C PREFETCH  REQUESTED:          0  ISSUED:          0  USEFUL:      22807  USELESS:    2882527
L2C USEFUL LOAD PREFETCHES:      22807 PREFETCH ISSUED TO LOWER LEVEL:    2907042  ACCURACY: 0.784543
L2C TIMELY PREFETCHES:      22807 LATE PREFETCHES: 0 DROPPED PREFETCHES: 0
L2C PREFETCHES SAME FILL-ORIGIN LEVEL: 0 DIFFERENT FILL-ORIGIN LEVEL: 0
L2C AVERAGE MISS LATENCY: 174.331 cycles
L2C RQ	ACCESS:    2172821	FORWARD:          0	MERGED:          0	TO_CACHE:    2172821
L2C WQ	ACCESS:     648980	FORWARD:          0	MERGED:          0	TO_CACHE:     648980
L2C PQ	ACCESS:    3061558	FORWARD:          0	MERGED:          0	TO_CACHE:    3061558

L2C Instructions Evicting Data 0
L2C Translations Evicting Data 60946
L2C Data Evicting Data 4586800
L2C Instructions Evicting Instructions 0
L2C Translations Evicting Instructions 0
L2C Data Evicting Instructions 0
L2C Instructions Evicting Translations 0
L2C Translations Evicting Translations 470
L2C Data Evicting Translations 60841
L2C Dense regions hint from L2: 0
PSCL5 TOTAL     ACCESS:     338265  HIT:     338265  MISS:          0  HIT %:        100  MISS %:          0   MPKI: 0
PSCL5 LOAD TRANSLATION ACCESS:     338265  HIT:     338265  MISS:          0  HIT %:        100  MISS %:          0   MPKI: 0
PSCL5 PREFETCH  REQUESTED:          0  ISSUED:          0  USEFUL:          0  USELESS:          0
PSCL5 USEFUL LOAD PREFETCHES:          0 PREFETCH ISSUED TO LOWER LEVEL:          0  ACCURACY: -nan
PSCL5 TIMELY PREFETCHES:          0 LATE PREFETCHES: 0 DROPPED PREFETCHES: 0
PSCL5 PREFETCHES SAME FILL-ORIGIN LEVEL: 0 DIFFERENT FILL-ORIGIN LEVEL: 0

PSCL4 TOTAL     ACCESS:     338265  HIT:     338265  MISS:          0  HIT %:        100  MISS %:          0   MPKI: 0
PSCL4 LOAD TRANSLATION ACCESS:     338265  HIT:     338265  MISS:          0  HIT %:        100  MISS %:          0   MPKI: 0
PSCL4 PREFETCH  REQUESTED:          0  ISSUED:          0  USEFUL:          0  USELESS:          0
PSCL4 USEFUL LOAD PREFETCHES:          0 PREFETCH ISSUED TO LOWER LEVEL:          0  ACCURACY: -nan
PSCL4 TIMELY PREFETCHES:          0 LATE PREFETCHES: 0 DROPPED PREFETCHES: 0
PSCL4 PREFETCHES SAME FILL-ORIGIN LEVEL: 0 DIFFERENT FILL-ORIGIN LEVEL: 0

PSCL3 TOTAL     ACCESS:     338265  HIT:     338265  MISS:          0  HIT %:        100  MISS %:          0   MPKI: 0
PSCL3 LOAD TRANSLATION ACCESS:     338265  HIT:     338265  MISS:          0  HIT %:        100  MISS %:          0   MPKI: 0
PSCL3 PREFETCH  REQUESTED:          0  ISSUED:          0  USEFUL:          0  USELESS:          0
PSCL3 USEFUL LOAD PREFETCHES:          0 PREFETCH ISSUED TO LOWER LEVEL:          0  ACCURACY: -nan
PSCL3 TIMELY PREFETCHES:          0 LATE PREFETCHES: 0 DROPPED PREFETCHES: 0
PSCL3 PREFETCHES SAME FILL-ORIGIN LEVEL: 0 DIFFERENT FILL-ORIGIN LEVEL: 0

PSCL2 TOTAL     ACCESS:     338265  HIT:     338240  MISS:         25  HIT %:    99.9926  MISS %: 0.00739066   MPKI: 0.001
PSCL2 LOAD TRANSLATION ACCESS:     338265  HIT:     338240  MISS:         25  HIT %:    99.9926  MISS %: 0.00739066   MPKI: 0.001
PSCL2 PREFETCH  REQUESTED:          0  ISSUED:          0  USEFUL:          0  USELESS:          0
PSCL2 USEFUL LOAD PREFETCHES:          0 PREFETCH ISSUED TO LOWER LEVEL:          0  ACCURACY: -nan
PSCL2 TIMELY PREFETCHES:          0 LATE PREFETCHES: 0 DROPPED PREFETCHES: 0
PSCL2 PREFETCHES SAME FILL-ORIGIN LEVEL: 0 DIFFERENT FILL-ORIGIN LEVEL: 0

LLC TOTAL     ACCESS:    5355390  HIT:    1725046  MISS:    3630344  HIT %:    32.2114  MISS %:    67.7886   MPKI: 145.214
LLC LOAD      ACCESS:    1729628  HIT:     481681  MISS:    1247947  HIT %:    27.8488  MISS %:    72.1512   MPKI: 49.9179
LLC RFO       ACCESS:      10979  HIT:        248  MISS:      10731  HIT %:    2.25886  MISS %:    97.7411   MPKI: 0.42924
LLC PREFETCH  ACCESS:    2907034  HIT:     544815  MISS:    2362219  HIT %:    18.7413  MISS %:    81.2587   MPKI: 94.4888
AGUS PREFETCH L1 MISS: 0
LLC WRITEBACK ACCESS:     646333  HIT:     645795  MISS:        538  HIT %:    99.9168  MISS %:  0.0832388   MPKI: 0.02152
LLC LOAD TRANSLATION ACCESS:      61416  HIT:      52507  MISS:       8909  HIT %:     85.494  MISS %:     14.506   MPKI: 0.35636
LLC PREFETCH  REQUESTED:          0  ISSUED:          0  USEFUL:     140818  USELESS:    2214976
LLC USEFUL LOAD PREFETCHES:     140818 PREFETCH ISSUED TO LOWER LEVEL:    2362227  ACCURACY: 5.96124
LLC TIMELY PREFETCHES:     140818 LATE PREFETCHES: 0 DROPPED PREFETCHES: 0
LLC PREFETCHES SAME FILL-ORIGIN LEVEL: 0 DIFFERENT FILL-ORIGIN LEVEL: 0
LLC AVERAGE MISS LATENCY: 187.237 cycles
LLC RQ	ACCESS:    1802027	FORWARD:          0	MERGED:          0	TO_CACHE:    1802027
LLC WQ	ACCESS:     646334	FORWARD:          0	MERGED:          0	TO_CACHE:     646334
LLC PQ	ACCESS:    2907042	FORWARD:          0	MERGED:          0	TO_CACHE:    2907042

LLC Dense regions hint to LLC: 0

RAW hits: 82820
Loads Generated: 6744148
Loads sent to L1D: 6661328
Stores Generated: 1318209
Stores sent to L1D: 1318211
Major fault: 0 Minor fault: 9795
Allocated PAGES: 9795
CPU 0 L1D nextline prefetcher final stats
 Action = 30 : 494479
 Action = 23 : 548396
 Action = 16 : 630739
 Action = 11 : 645071
 Action = 10 : 672222
 Action = 22 : 544893
 Action = 5 : 780342
 Action = 4 : 788229
 Action = 32 : 460732
 Action = -3 : 831983
 Action = 12 : 644031
 Action = -6 : 657076
 Action = 3 : 806086
 Action = 1 : 858709
 Action = -1 : 866942
 Action = 0 : 9871

DRAM Statistics
 CHANNEL 0
 RQ ROW_BUFFER_HIT:     936682  ROW_BUFFER_MISS:    2692907
 DBUS_CONGESTED:       2588
 WQ ROW_BUFFER_HIT:     396950  ROW_BUFFER_MISS:     217854  FULL:          0

 AVG_CONGESTED_CYCLE: 4
 All warmup complete: 2
Channel 0 Bank busy for read cycles: 0
Channel 0 Bank busy for write cycles: 0
Channel 0
Rank 0
0banks busy for read cycles: 619178
0banks busy for write cycles: 1381
1banks busy for read cycles: 36819854
1banks busy for write cycles: 734446
2banks busy for read cycles: 31275505
2banks busy for write cycles: 1097020
3banks busy for read cycles: 29518772
3banks busy for write cycles: 1781103
4banks busy for read cycles: 23677901
4banks busy for write cycles: 2841727
5banks busy for read cycles: 16023085
5banks busy for write cycles: 4409085
6banks busy for read cycles: 8888919
6banks busy for write cycles: 6848555
7banks busy for read cycles: 3881716
7banks busy for write cycles: 10587612
8banks busy for read cycles: 952270
8banks busy for write cycles: 13543035

CPU 0 Branch Prediction Accuracy: 84.2228% MPKI: 29.7856 Average ROB Occupancy at Mispredict: 21.6785
Branch types
NOT_BRANCH: 20280011 81.12%
BRANCH_DIRECT_JUMP: 95560 0.38224%
BRANCH_INDIRECT: 0 0%
BRANCH_CONDITIONAL: 4624157 18.4966%
BRANCH_DIRECT_CALL: 5 2e-05%
BRANCH_INDIRECT_CALL: 0 0%
BRANCH_RETURN: 5 2e-05%
BRANCH_OTHER: 0 0%

DRAM PAGES: 1048576
Allocated PAGES: 9795
