
*** ChampSim Multicore Out-of-Order Simulator ***

Warmup Instructions: 25000000
Simulation Instructions: 25000000
Number of CPUs: 1
LLC sets: 2048
LLC ways: 16
Off-chip DRAM Size: 4096 MB Channels: 1 Width: 64-bit Data Rate: 6400 MT/s
CPU 0 runs ../traces/bc-0.trace.gz
.gz
CPU 0 Bimodal branch predictor
BTB has LRU replacement policy
ITLB has LRU replacement policy
DTLB has LRU replacement policy
STLB has LRU replacement policy
L1I has LRU replacement policy
L1D has LRU replacement policy
L2C has LRU replacement policy
LLC has LRU replacement policy
Heartbeat CPU 0 instructions: 10000002 cycles: 3487663 heartbeat IPC: 2.86725 cumulative IPC: 2.86725 (Simulation time: 0 hr 0 min 14 sec) 
Heartbeat CPU 0 instructions: 20000000 cycles: 6415417 heartbeat IPC: 3.41559 cumulative IPC: 3.11749 (Simulation time: 0 hr 0 min 27 sec) 

Warmup complete CPU 0 instructions: 25000004 cycles: 7876834 (Simulation time: 0 hr 0 min 33 sec) 

Heartbeat CPU 0 instructions: 30000001 cycles: 45933789 heartbeat IPC: 0.253047 cumulative IPC: 0.131382 (Simulation time: 0 hr 0 min 45 sec) 
Heartbeat CPU 0 instructions: 40000002 cycles: 123082244 heartbeat IPC: 0.12962 cumulative IPC: 0.130202 (Simulation time: 0 hr 1 min 9 sec) 
Heartbeat CPU 0 instructions: 50000000 cycles: 200267660 heartbeat IPC: 0.129558 cumulative IPC: 0.129944 (Simulation time: 0 hr 1 min 32 sec) 
Finished CPU 0 instructions: 25000000 cycles: 192390827 cumulative IPC: 0.129944 (Simulation time: 0 hr 1 min 32 sec) 

ChampSim completed all CPUs

Region of Interest Statistics

CPU 0 cumulative IPC: 0.129944 instructions: 25000000 cycles: 192390827
ITLB TOTAL     ACCESS:    4533984  HIT:    4533984  MISS:          0  HIT %:        100  MISS %:          0   MPKI: 0
ITLB LOAD TRANSLATION ACCESS:    4533984  HIT:    4533984  MISS:          0  HIT %:        100  MISS %:          0   MPKI: 0
ITLB PREFETCH  REQUESTED:          0  ISSUED:          0  USEFUL:          0  USELESS:          0
ITLB USEFUL LOAD PREFETCHES:          0 PREFETCH ISSUED TO LOWER LEVEL:          0  ACCURACY: -nan
ITLB TIMELY PREFETCHES:          0 LATE PREFETCHES: 0 DROPPED PREFETCHES: 0
ITLB PREFETCHES SAME FILL-ORIGIN LEVEL: 0 DIFFERENT FILL-ORIGIN LEVEL: 0
ITLB AVERAGE MISS LATENCY: -nan cycles
ITLB RQ	ACCESS:    4678080	FORWARD:          0	MERGED:     144096	TO_CACHE:    4533984

DTLB TOTAL     ACCESS:    7033152  HIT:    6299311  MISS:     733841  HIT %:     89.566  MISS %:     10.434   MPKI: 29.3536
DTLB LOAD TRANSLATION ACCESS:    7033152  HIT:    6299311  MISS:     733841  HIT %:     89.566  MISS %:     10.434   MPKI: 29.3536
DTLB PREFETCH  REQUESTED:          0  ISSUED:          0  USEFUL:          0  USELESS:          0
DTLB USEFUL LOAD PREFETCHES:          0 PREFETCH ISSUED TO LOWER LEVEL:          0  ACCURACY: -nan
DTLB TIMELY PREFETCHES:          0 LATE PREFETCHES: 0 DROPPED PREFETCHES: 0
DTLB PREFETCHES SAME FILL-ORIGIN LEVEL: 0 DIFFERENT FILL-ORIGIN LEVEL: 0
DTLB AVERAGE MISS LATENCY: 21.1451 cycles
DTLB RQ	ACCESS:    7224400	FORWARD:          0	MERGED:     134635	TO_CACHE:    7089765

STLB TOTAL     ACCESS:     733841  HIT:     397173  MISS:     336668  HIT %:    54.1225  MISS %:    45.8775   MPKI: 13.4667
STLB LOAD TRANSLATION ACCESS:     733841  HIT:     397173  MISS:     336668  HIT %:    54.1225  MISS %:    45.8775   MPKI: 13.4667
STLB PREFETCH  REQUESTED:          0  ISSUED:          0  USEFUL:          0  USELESS:          0
STLB USEFUL LOAD PREFETCHES:          0 PREFETCH ISSUED TO LOWER LEVEL:          0  ACCURACY: -nan
STLB TIMELY PREFETCHES:          0 LATE PREFETCHES: 0 DROPPED PREFETCHES: 0
STLB PREFETCHES SAME FILL-ORIGIN LEVEL: 0 DIFFERENT FILL-ORIGIN LEVEL: 0
STLB AVERAGE MISS LATENCY: 26.2915 cycles
STLB RQ	ACCESS:     733841	FORWARD:          0	MERGED:          0	TO_CACHE:     733841

STLB Hit, L1D data hit: 0
STLB Hit, L2C data hit: 0
STLB Hit, LLC data hit: 0
STLB Hit, LLC data miss: 0
STLB STLB hints to L2: 0
L1D TOTAL     ACCESS:    7079038  HIT:    4993775  MISS:    2085263  HIT %:    70.5431  MISS %:    29.4569   MPKI: 83.4105
L1D LOAD      ACCESS:    5788388  HIT:    3714157  MISS:    2074231  HIT %:    64.1657  MISS %:    35.8343   MPKI: 82.9692
L1D RFO       ACCESS:    1290650  HIT:    1279618  MISS:      11032  HIT %:    99.1452  MISS %:   0.854763   MPKI: 0.44128
L1D PREFETCH  REQUESTED:          0  ISSUED:          0  USEFUL:          0  USELESS:          0
L1D USEFUL LOAD PREFETCHES:          0 PREFETCH ISSUED TO LOWER LEVEL:          0  ACCURACY: -nan
L1D TIMELY PREFETCHES:          0 LATE PREFETCHES: 0 DROPPED PREFETCHES: 0
L1D PREFETCHES SAME FILL-ORIGIN LEVEL: 0 DIFFERENT FILL-ORIGIN LEVEL: 0
L1D AVERAGE MISS LATENCY: 136.626 cycles
L1D RQ	ACCESS:    6673607	FORWARD:          0	MERGED:     717153	TO_CACHE:    5918602
L1D WQ	ACCESS:    1318211	FORWARD:      37852	MERGED:      12413	TO_CACHE:    1305798

L1D UNIQUE REGIONS ACCESSED: 0
L1D REGIONS CONFLICTS: 0
L1D Cross Page Prefetch Requests: 0
L1D Same Page Prefetch Requests: 0
L1D ROI Sum of L1D PQ occupancy: 0
L1D PREFETCHES PUSHED FROM L2C: 0
L1I TOTAL     ACCESS:    4678078  HIT:    4678078  MISS:          0  HIT %:        100  MISS %:          0   MPKI: 0
L1I LOAD      ACCESS:    4678078  HIT:    4678078  MISS:          0  HIT %:        100  MISS %:          0   MPKI: 0
L1I PREFETCH  REQUESTED:          0  ISSUED:          0  USEFUL:          0  USELESS:          0
L1I USEFUL LOAD PREFETCHES:          0 PREFETCH ISSUED TO LOWER LEVEL:          0  ACCURACY: -nan
L1I TIMELY PREFETCHES:          0 LATE PREFETCHES: 0 DROPPED PREFETCHES: 0
L1I PREFETCHES SAME FILL-ORIGIN LEVEL: 0 DIFFERENT FILL-ORIGIN LEVEL: 0
L1I AVERAGE MISS LATENCY: -nan cycles
L1I RQ	ACCESS:    6316172	FORWARD:          0	MERGED:    1638092	TO_CACHE:    4678080

BTB TOTAL     ACCESS:    4695427  HIT:    4695413  MISS:         14  HIT %:    99.9997  MISS %: 0.000298162   MPKI: 0.00056
BTB BRANCH_DIRECT_JUMP	ACCESS:      95560  HIT:      95556  MISS:          4
BTB BRANCH_INDIRECT	ACCESS:          0  HIT:          0  MISS:          0
BTB BRANCH_CONDITIONAL	ACCESS:    4599857  HIT:    4599849  MISS:          8
BTB BRANCH_DIRECT_CALL	ACCESS:          5  HIT:          4  MISS:          1
BTB BRANCH_INDIRECT_CALL	ACCESS:          0  HIT:          0  MISS:          0
BTB BRANCH_RETURN	ACCESS:          5  HIT:          4  MISS:          1
BTB BRANCH_OTHER ACCESS:          0  HIT:          0  MISS:          0

L2C TOTAL     ACCESS:    3070769  HIT:    1186553  MISS:    1884216  HIT %:    38.6403  MISS %:    61.3597   MPKI: 75.3686
L2C LOAD      ACCESS:    2074231  HIT:     223050  MISS:    1851181  HIT %:    10.7534  MISS %:    89.2466   MPKI: 74.0472
L2C DATA LOAD MPKI: 74.0472
L2C INSTRUCTION LOAD MPKI: 0
L2C RFO       ACCESS:      11032  HIT:        121  MISS:      10911  HIT %:    1.09681  MISS %:    98.9032   MPKI: 0.43644
L2C WRITEBACK ACCESS:     648820  HIT:     648808  MISS:         12  HIT %:    99.9982  MISS %: 0.00184951   MPKI: 0.00048
L2C LOAD TRANSLATION ACCESS:     336686  HIT:     314574  MISS:      22112  HIT %:    93.4325  MISS %:    6.56754   MPKI: 0.88448
L2C PREFETCH  REQUESTED:          0  ISSUED:          0  USEFUL:          0  USELESS:          0
L2C USEFUL LOAD PREFETCHES:          0 PREFETCH ISSUED TO LOWER LEVEL:          0  ACCURACY: -nan
L2C TIMELY PREFETCHES:          0 LATE PREFETCHES: 0 DROPPED PREFETCHES: 0
L2C PREFETCHES SAME FILL-ORIGIN LEVEL: 0 DIFFERENT FILL-ORIGIN LEVEL: 0
L2C AVERAGE MISS LATENCY: 135.252 cycles
L2C RQ	ACCESS:    2421949	FORWARD:          0	MERGED:          0	TO_CACHE:    2421949
L2C WQ	ACCESS:     648820	FORWARD:          0	MERGED:          0	TO_CACHE:     648820

L2C Instructions Evicting Data 0
L2C Translations Evicting Data 21546
L2C Data Evicting Data 1840598
L2C Instructions Evicting Instructions 0
L2C Translations Evicting Instructions 0
L2C Data Evicting Instructions 0
L2C Instructions Evicting Translations 0
L2C Translations Evicting Translations 566
L2C Data Evicting Translations 21494
L2C Dense regions hint from L2: 0
PSCL5 TOTAL     ACCESS:     336668  HIT:     336668  MISS:          0  HIT %:        100  MISS %:          0   MPKI: 0
PSCL5 LOAD TRANSLATION ACCESS:     336668  HIT:     336668  MISS:          0  HIT %:        100  MISS %:          0   MPKI: 0
PSCL5 PREFETCH  REQUESTED:          0  ISSUED:          0  USEFUL:          0  USELESS:          0
PSCL5 USEFUL LOAD PREFETCHES:          0 PREFETCH ISSUED TO LOWER LEVEL:          0  ACCURACY: -nan
PSCL5 TIMELY PREFETCHES:          0 LATE PREFETCHES: 0 DROPPED PREFETCHES: 0
PSCL5 PREFETCHES SAME FILL-ORIGIN LEVEL: 0 DIFFERENT FILL-ORIGIN LEVEL: 0

PSCL4 TOTAL     ACCESS:     336668  HIT:     336668  MISS:          0  HIT %:        100  MISS %:          0   MPKI: 0
PSCL4 LOAD TRANSLATION ACCESS:     336668  HIT:     336668  MISS:          0  HIT %:        100  MISS %:          0   MPKI: 0
PSCL4 PREFETCH  REQUESTED:          0  ISSUED:          0  USEFUL:          0  USELESS:          0
PSCL4 USEFUL LOAD PREFETCHES:          0 PREFETCH ISSUED TO LOWER LEVEL:          0  ACCURACY: -nan
PSCL4 TIMELY PREFETCHES:          0 LATE PREFETCHES: 0 DROPPED PREFETCHES: 0
PSCL4 PREFETCHES SAME FILL-ORIGIN LEVEL: 0 DIFFERENT FILL-ORIGIN LEVEL: 0

PSCL3 TOTAL     ACCESS:     336668  HIT:     336668  MISS:          0  HIT %:        100  MISS %:          0   MPKI: 0
PSCL3 LOAD TRANSLATION ACCESS:     336668  HIT:     336668  MISS:          0  HIT %:        100  MISS %:          0   MPKI: 0
PSCL3 PREFETCH  REQUESTED:          0  ISSUED:          0  USEFUL:          0  USELESS:          0
PSCL3 USEFUL LOAD PREFETCHES:          0 PREFETCH ISSUED TO LOWER LEVEL:          0  ACCURACY: -nan
PSCL3 TIMELY PREFETCHES:          0 LATE PREFETCHES: 0 DROPPED PREFETCHES: 0
PSCL3 PREFETCHES SAME FILL-ORIGIN LEVEL: 0 DIFFERENT FILL-ORIGIN LEVEL: 0

PSCL2 TOTAL     ACCESS:     336668  HIT:     336642  MISS:         26  HIT %:    99.9923  MISS %: 0.00772274   MPKI: 0.00104
PSCL2 LOAD TRANSLATION ACCESS:     336668  HIT:     336642  MISS:         26  HIT %:    99.9923  MISS %: 0.00772274   MPKI: 0.00104
PSCL2 PREFETCH  REQUESTED:          0  ISSUED:          0  USEFUL:          0  USELESS:          0
PSCL2 USEFUL LOAD PREFETCHES:          0 PREFETCH ISSUED TO LOWER LEVEL:          0  ACCURACY: -nan
PSCL2 TIMELY PREFETCHES:          0 LATE PREFETCHES: 0 DROPPED PREFETCHES: 0
PSCL2 PREFETCHES SAME FILL-ORIGIN LEVEL: 0 DIFFERENT FILL-ORIGIN LEVEL: 0

LLC TOTAL     ACCESS:    2518804  HIT:    1300473  MISS:    1218331  HIT %:    51.6306  MISS %:    48.3694   MPKI: 48.7332
LLC LOAD      ACCESS:    1851181  HIT:     647662  MISS:    1203519  HIT %:    34.9864  MISS %:    65.0136   MPKI: 48.1408
LLC RFO       ACCESS:      10911  HIT:        612  MISS:      10299  HIT %:    5.60902  MISS %:     94.391   MPKI: 0.41196
LLC WRITEBACK ACCESS:     634600  HIT:     634546  MISS:         54  HIT %:    99.9915  MISS %:  0.0085093   MPKI: 0.00216
LLC LOAD TRANSLATION ACCESS:      22112  HIT:      17653  MISS:       4459  HIT %:    79.8345  MISS %:    20.1655   MPKI: 0.17836
LLC PREFETCH  REQUESTED:          0  ISSUED:          0  USEFUL:          0  USELESS:          0
LLC USEFUL LOAD PREFETCHES:          0 PREFETCH ISSUED TO LOWER LEVEL:          0  ACCURACY: -nan
LLC TIMELY PREFETCHES:          0 LATE PREFETCHES: 0 DROPPED PREFETCHES: 0
LLC PREFETCHES SAME FILL-ORIGIN LEVEL: 0 DIFFERENT FILL-ORIGIN LEVEL: 0
LLC AVERAGE MISS LATENCY: 162.73 cycles
LLC RQ	ACCESS:    1884204	FORWARD:          0	MERGED:          0	TO_CACHE:    1884204
LLC WQ	ACCESS:     634600	FORWARD:          0	MERGED:          0	TO_CACHE:     634600

LLC Dense regions hint to LLC: 0

RAW hits: 70524
Loads Generated: 6744133
Loads sent to L1D: 6673607
Stores Generated: 1318207
Stores sent to L1D: 1318211
Major fault: 0 Minor fault: 9795
Allocated PAGES: 9795

DRAM Statistics
 CHANNEL 0
 RQ ROW_BUFFER_HIT:     205222  ROW_BUFFER_MISS:    1013052
 DBUS_CONGESTED:        546
 WQ ROW_BUFFER_HIT:     293275  ROW_BUFFER_MISS:     244478  FULL:          0

 AVG_CONGESTED_CYCLE: 4
 All warmup complete: 2
Channel 0 Bank busy for read cycles: 0
Channel 0 Bank busy for write cycles: 0
Channel 0
Rank 0
0banks busy for read cycles: 22983589
0banks busy for write cycles: 157255
1banks busy for read cycles: 64840729
1banks busy for write cycles: 29730662
2banks busy for read cycles: 31480810
2banks busy for write cycles: 20152458
3banks busy for read cycles: 7768594
3banks busy for write cycles: 8771313
4banks busy for read cycles: 1852559
4banks busy for write cycles: 2913259
5banks busy for read cycles: 421090
5banks busy for write cycles: 769182
6banks busy for read cycles: 104591
6banks busy for write cycles: 166424
7banks busy for read cycles: 34272
7banks busy for write cycles: 33985
8banks busy for read cycles: 104934
8banks busy for write cycles: 105122

CPU 0 Branch Prediction Accuracy: 84.2228% MPKI: 29.7856 Average ROB Occupancy at Mispredict: 20.3003
Branch types
NOT_BRANCH: 20279972 81.1199%
BRANCH_DIRECT_JUMP: 95560 0.38224%
BRANCH_INDIRECT: 0 0%
BRANCH_CONDITIONAL: 4624142 18.4966%
BRANCH_DIRECT_CALL: 5 2e-05%
BRANCH_INDIRECT_CALL: 0 0%
BRANCH_RETURN: 5 2e-05%
BRANCH_OTHER: 0 0%

DRAM PAGES: 1048576
Allocated PAGES: 9795
