
*** ChampSim Multicore Out-of-Order Simulator ***

Warmup Instructions: 25000000
Simulation Instructions: 25000000
Number of CPUs: 1
LLC sets: 2048
LLC ways: 16
Off-chip DRAM Size: 4096 MB Channels: 1 Width: 64-bit Data Rate: 6400 MT/s
CPU 0 runs ../traces/bc-12.trace.gz
.gz
CPU 0 Bimodal branch predictor
BTB has LRU replacement policy
ITLB has LRU replacement policy
DTLB has LRU replacement policy
STLB has LRU replacement policy
L1I has LRU replacement policy
L1D has LRU replacement policy
L2C has LRU replacement policy
LLC has LRU replacement policy
Heartbeat CPU 0 instructions: 10000001 cycles: 3490521 heartbeat IPC: 2.8649 cumulative IPC: 2.8649 (Simulation time: 0 hr 0 min 16 sec) 
Heartbeat CPU 0 instructions: 20000000 cycles: 6461311 heartbeat IPC: 3.36611 cumulative IPC: 3.09535 (Simulation time: 0 hr 0 min 28 sec) 

Warmup complete CPU 0 instructions: 25000004 cycles: 7943205 (Simulation time: 0 hr 0 min 35 sec) 

Heartbeat CPU 0 instructions: 30000001 cycles: 47040279 heartbeat IPC: 0.246433 cumulative IPC: 0.127887 (Simulation time: 0 hr 0 min 47 sec) 
Heartbeat CPU 0 instructions: 40000003 cycles: 124622496 heartbeat IPC: 0.128896 cumulative IPC: 0.128558 (Simulation time: 0 hr 1 min 11 sec) 
Heartbeat CPU 0 instructions: 50000000 cycles: 201661115 heartbeat IPC: 0.129805 cumulative IPC: 0.129054 (Simulation time: 0 hr 1 min 36 sec) 
Finished CPU 0 instructions: 25000000 cycles: 193717911 cumulative IPC: 0.129054 (Simulation time: 0 hr 1 min 36 sec) 

ChampSim completed all CPUs

Region of Interest Statistics

CPU 0 cumulative IPC: 0.129054 instructions: 25000000 cycles: 193717911
ITLB TOTAL     ACCESS:    3974819  HIT:    3974819  MISS:          0  HIT %:        100  MISS %:          0   MPKI: 0
ITLB LOAD TRANSLATION ACCESS:    3974819  HIT:    3974819  MISS:          0  HIT %:        100  MISS %:          0   MPKI: 0
ITLB PREFETCH  REQUESTED:          0  ISSUED:          0  USEFUL:          0  USELESS:          0
ITLB USEFUL LOAD PREFETCHES:          0 PREFETCH ISSUED TO LOWER LEVEL:          0  ACCURACY: -nan
ITLB TIMELY PREFETCHES:          0 LATE PREFETCHES: 0 DROPPED PREFETCHES: 0
ITLB PREFETCHES SAME FILL-ORIGIN LEVEL: 0 DIFFERENT FILL-ORIGIN LEVEL: 0
ITLB AVERAGE MISS LATENCY: -nan cycles
ITLB RQ	ACCESS:    4139132	FORWARD:          0	MERGED:     164313	TO_CACHE:    3974819

DTLB TOTAL     ACCESS:    7581750  HIT:    6771685  MISS:     810065  HIT %:    89.3156  MISS %:    10.6844   MPKI: 32.4026
DTLB LOAD TRANSLATION ACCESS:    7581750  HIT:    6771685  MISS:     810065  HIT %:    89.3156  MISS %:    10.6844   MPKI: 32.4026
DTLB PREFETCH  REQUESTED:          0  ISSUED:          0  USEFUL:          0  USELESS:          0
DTLB USEFUL LOAD PREFETCHES:          0 PREFETCH ISSUED TO LOWER LEVEL:          0  ACCURACY: -nan
DTLB TIMELY PREFETCHES:          0 LATE PREFETCHES: 0 DROPPED PREFETCHES: 0
DTLB PREFETCHES SAME FILL-ORIGIN LEVEL: 0 DIFFERENT FILL-ORIGIN LEVEL: 0
DTLB AVERAGE MISS LATENCY: 20.89 cycles
DTLB RQ	ACCESS:    8242449	FORWARD:          0	MERGED:     593351	TO_CACHE:    7649098

STLB TOTAL     ACCESS:     810065  HIT:     432737  MISS:     377328  HIT %:      53.42  MISS %:      46.58   MPKI: 15.0931
STLB LOAD TRANSLATION ACCESS:     810065  HIT:     432737  MISS:     377328  HIT %:      53.42  MISS %:      46.58   MPKI: 15.0931
STLB PREFETCH  REQUESTED:          0  ISSUED:          0  USEFUL:          0  USELESS:          0
STLB USEFUL LOAD PREFETCHES:          0 PREFETCH ISSUED TO LOWER LEVEL:          0  ACCURACY: -nan
STLB TIMELY PREFETCHES:          0 LATE PREFETCHES: 0 DROPPED PREFETCHES: 0
STLB PREFETCHES SAME FILL-ORIGIN LEVEL: 0 DIFFERENT FILL-ORIGIN LEVEL: 0
STLB AVERAGE MISS LATENCY: 25.4408 cycles
STLB RQ	ACCESS:     810065	FORWARD:          0	MERGED:          0	TO_CACHE:     810065

STLB Hit, L1D data hit: 0
STLB Hit, L2C data hit: 0
STLB Hit, LLC data hit: 0
STLB Hit, LLC data miss: 0
STLB STLB hints to L2: 0
L1D TOTAL     ACCESS:    8133358  HIT:    6055901  MISS:    2077457  HIT %:    74.4576  MISS %:    25.5424   MPKI: 83.0983
L1D LOAD      ACCESS:    6650692  HIT:    4585186  MISS:    2065506  HIT %:     68.943  MISS %:     31.057   MPKI: 82.6202
L1D RFO       ACCESS:    1482666  HIT:    1470715  MISS:      11951  HIT %:     99.194  MISS %:   0.806048   MPKI: 0.47804
L1D PREFETCH  REQUESTED:          0  ISSUED:          0  USEFUL:          0  USELESS:          0
L1D USEFUL LOAD PREFETCHES:          0 PREFETCH ISSUED TO LOWER LEVEL:          0  ACCURACY: -nan
L1D TIMELY PREFETCHES:          0 LATE PREFETCHES: 0 DROPPED PREFETCHES: 0
L1D PREFETCHES SAME FILL-ORIGIN LEVEL: 0 DIFFERENT FILL-ORIGIN LEVEL: 0
L1D AVERAGE MISS LATENCY: 138.836 cycles
L1D RQ	ACCESS:    6986946	FORWARD:          0	MERGED:     228061	TO_CACHE:    6741641
L1D WQ	ACCESS:    1534756	FORWARD:      17244	MERGED:      33948	TO_CACHE:    1500808

L1D UNIQUE REGIONS ACCESSED: 0
L1D REGIONS CONFLICTS: 0
L1D Cross Page Prefetch Requests: 0
L1D Same Page Prefetch Requests: 0
L1D ROI Sum of L1D PQ occupancy: 0
L1D PREFETCHES PUSHED FROM L2C: 0
L1I TOTAL     ACCESS:    4139132  HIT:    4139132  MISS:          0  HIT %:        100  MISS %:          0   MPKI: 0
L1I LOAD      ACCESS:    4139132  HIT:    4139132  MISS:          0  HIT %:        100  MISS %:          0   MPKI: 0
L1I PREFETCH  REQUESTED:          0  ISSUED:          0  USEFUL:          0  USELESS:          0
L1I USEFUL LOAD PREFETCHES:          0 PREFETCH ISSUED TO LOWER LEVEL:          0  ACCURACY: -nan
L1I TIMELY PREFETCHES:          0 LATE PREFETCHES: 0 DROPPED PREFETCHES: 0
L1I PREFETCHES SAME FILL-ORIGIN LEVEL: 0 DIFFERENT FILL-ORIGIN LEVEL: 0
L1I AVERAGE MISS LATENCY: -nan cycles
L1I RQ	ACCESS:    5852915	FORWARD:          0	MERGED:    1713783	TO_CACHE:    4139132

BTB TOTAL     ACCESS:    4324552  HIT:    4324538  MISS:         14  HIT %:    99.9997  MISS %: 0.000323733   MPKI: 0.00056
BTB BRANCH_DIRECT_JUMP	ACCESS:      93827  HIT:      93823  MISS:          4
BTB BRANCH_INDIRECT	ACCESS:          0  HIT:          0  MISS:          0
BTB BRANCH_CONDITIONAL	ACCESS:    4230713  HIT:    4230705  MISS:          8
BTB BRANCH_DIRECT_CALL	ACCESS:          6  HIT:          5  MISS:          1
BTB BRANCH_INDIRECT_CALL	ACCESS:          0  HIT:          0  MISS:          0
BTB BRANCH_RETURN	ACCESS:          6  HIT:          5  MISS:          1
BTB BRANCH_OTHER ACCESS:          0  HIT:          0  MISS:          0

L2C TOTAL     ACCESS:    3207770  HIT:    1336010  MISS:    1871760  HIT %:    41.6492  MISS %:    58.3508   MPKI: 74.8704
L2C LOAD      ACCESS:    2065506  HIT:     224052  MISS:    1841454  HIT %:    10.8473  MISS %:    89.1527   MPKI: 73.6582
L2C DATA LOAD MPKI: 73.6582
L2C INSTRUCTION LOAD MPKI: 0
L2C RFO       ACCESS:      11951  HIT:        124  MISS:      11827  HIT %:    1.03757  MISS %:    98.9624   MPKI: 0.47308
L2C WRITEBACK ACCESS:     752982  HIT:     752974  MISS:          8  HIT %:    99.9989  MISS %: 0.00106244   MPKI: 0.00032
L2C LOAD TRANSLATION ACCESS:     377331  HIT:     358860  MISS:      18471  HIT %:    95.1048  MISS %:    4.89517   MPKI: 0.73884
L2C PREFETCH  REQUESTED:          0  ISSUED:          0  USEFUL:          0  USELESS:          0
L2C USEFUL LOAD PREFETCHES:          0 PREFETCH ISSUED TO LOWER LEVEL:          0  ACCURACY: -nan
L2C TIMELY PREFETCHES:          0 LATE PREFETCHES: 0 DROPPED PREFETCHES: 0
L2C PREFETCHES SAME FILL-ORIGIN LEVEL: 0 DIFFERENT FILL-ORIGIN LEVEL: 0
L2C AVERAGE MISS LATENCY: 138.09 cycles
L2C RQ	ACCESS:    2454788	FORWARD:          0	MERGED:          0	TO_CACHE:    2454788
L2C WQ	ACCESS:     752982	FORWARD:          0	MERGED:          0	TO_CACHE:     752982

L2C Instructions Evicting Data 0
L2C Translations Evicting Data 18452
L2C Data Evicting Data 1834835
L2C Instructions Evicting Instructions 0
L2C Translations Evicting Instructions 0
L2C Data Evicting Instructions 0
L2C Instructions Evicting Translations 0
L2C Translations Evicting Translations 19
L2C Data Evicting Translations 18446
L2C Dense regions hint from L2: 0
PSCL5 TOTAL     ACCESS:     377328  HIT:     377328  MISS:          0  HIT %:        100  MISS %:          0   MPKI: 0
PSCL5 LOAD TRANSLATION ACCESS:     377328  HIT:     377328  MISS:          0  HIT %:        100  MISS %:          0   MPKI: 0
PSCL5 PREFETCH  REQUESTED:          0  ISSUED:          0  USEFUL:          0  USELESS:          0
PSCL5 USEFUL LOAD PREFETCHES:          0 PREFETCH ISSUED TO LOWER LEVEL:          0  ACCURACY: -nan
PSCL5 TIMELY PREFETCHES:          0 LATE PREFETCHES: 0 DROPPED PREFETCHES: 0
PSCL5 PREFETCHES SAME FILL-ORIGIN LEVEL: 0 DIFFERENT FILL-ORIGIN LEVEL: 0

PSCL4 TOTAL     ACCESS:     377328  HIT:     377328  MISS:          0  HIT %:        100  MISS %:          0   MPKI: 0
PSCL4 LOAD TRANSLATION ACCESS:     377328  HIT:     377328  MISS:          0  HIT %:        100  MISS %:          0   MPKI: 0
PSCL4 PREFETCH  REQUESTED:          0  ISSUED:          0  USEFUL:          0  USELESS:          0
PSCL4 USEFUL LOAD PREFETCHES:          0 PREFETCH ISSUED TO LOWER LEVEL:          0  ACCURACY: -nan
PSCL4 TIMELY PREFETCHES:          0 LATE PREFETCHES: 0 DROPPED PREFETCHES: 0
PSCL4 PREFETCHES SAME FILL-ORIGIN LEVEL: 0 DIFFERENT FILL-ORIGIN LEVEL: 0

PSCL3 TOTAL     ACCESS:     377328  HIT:     377328  MISS:          0  HIT %:        100  MISS %:          0   MPKI: 0
PSCL3 LOAD TRANSLATION ACCESS:     377328  HIT:     377328  MISS:          0  HIT %:        100  MISS %:          0   MPKI: 0
PSCL3 PREFETCH  REQUESTED:          0  ISSUED:          0  USEFUL:          0  USELESS:          0
PSCL3 USEFUL LOAD PREFETCHES:          0 PREFETCH ISSUED TO LOWER LEVEL:          0  ACCURACY: -nan
PSCL3 TIMELY PREFETCHES:          0 LATE PREFETCHES: 0 DROPPED PREFETCHES: 0
PSCL3 PREFETCHES SAME FILL-ORIGIN LEVEL: 0 DIFFERENT FILL-ORIGIN LEVEL: 0

PSCL2 TOTAL     ACCESS:     377328  HIT:     377319  MISS:          9  HIT %:    99.9976  MISS %: 0.00238519   MPKI: 0.00036
PSCL2 LOAD TRANSLATION ACCESS:     377328  HIT:     377319  MISS:          9  HIT %:    99.9976  MISS %: 0.00238519   MPKI: 0.00036
PSCL2 PREFETCH  REQUESTED:          0  ISSUED:          0  USEFUL:          0  USELESS:          0
PSCL2 USEFUL LOAD PREFETCHES:          0 PREFETCH ISSUED TO LOWER LEVEL:          0  ACCURACY: -nan
PSCL2 TIMELY PREFETCHES:          0 LATE PREFETCHES: 0 DROPPED PREFETCHES: 0
PSCL2 PREFETCHES SAME FILL-ORIGIN LEVEL: 0 DIFFERENT FILL-ORIGIN LEVEL: 0

LLC TOTAL     ACCESS:    2599442  HIT:    1380385  MISS:    1219057  HIT %:    53.1031  MISS %:    46.8969   MPKI: 48.7623
LLC LOAD      ACCESS:    1841454  HIT:     638504  MISS:    1202950  HIT %:    34.6739  MISS %:    65.3261   MPKI: 48.118
LLC RFO       ACCESS:      11827  HIT:        532  MISS:      11295  HIT %:    4.49818  MISS %:    95.5018   MPKI: 0.4518
LLC WRITEBACK ACCESS:     727690  HIT:     727630  MISS:         60  HIT %:    99.9918  MISS %: 0.00824527   MPKI: 0.0024
LLC LOAD TRANSLATION ACCESS:      18471  HIT:      13719  MISS:       4752  HIT %:    74.2732  MISS %:    25.7268   MPKI: 0.19008
LLC PREFETCH  REQUESTED:          0  ISSUED:          0  USEFUL:          0  USELESS:          0
LLC USEFUL LOAD PREFETCHES:          0 PREFETCH ISSUED TO LOWER LEVEL:          0  ACCURACY: -nan
LLC TIMELY PREFETCHES:          0 LATE PREFETCHES: 0 DROPPED PREFETCHES: 0
LLC PREFETCHES SAME FILL-ORIGIN LEVEL: 0 DIFFERENT FILL-ORIGIN LEVEL: 0
LLC AVERAGE MISS LATENCY: 165.924 cycles
LLC RQ	ACCESS:    1871753	FORWARD:          0	MERGED:          0	TO_CACHE:    1871753
LLC WQ	ACCESS:     727691	FORWARD:          0	MERGED:          0	TO_CACHE:     727691

LLC Dense regions hint to LLC: 0

RAW hits: 148963
Loads Generated: 7135909
Loads sent to L1D: 6986946
Stores Generated: 1534751
Stores sent to L1D: 1534756
Major fault: 0 Minor fault: 9249
Allocated PAGES: 9249

DRAM Statistics
 CHANNEL 0
 RQ ROW_BUFFER_HIT:     181867  ROW_BUFFER_MISS:    1037114
 DBUS_CONGESTED:        523
 WQ ROW_BUFFER_HIT:     309146  ROW_BUFFER_MISS:     274216  FULL:          0

 AVG_CONGESTED_CYCLE: 4
 All warmup complete: 2
Channel 0 Bank busy for read cycles: 0
Channel 0 Bank busy for write cycles: 0
Channel 0
Rank 0
0banks busy for read cycles: 23186442
0banks busy for write cycles: 153176
1banks busy for read cycles: 65516016
1banks busy for write cycles: 28813561
2banks busy for read cycles: 28787371
2banks busy for write cycles: 19767262
3banks busy for read cycles: 7976178
3banks busy for write cycles: 9555231
4banks busy for read cycles: 2610672
4banks busy for write cycles: 3878715
5banks busy for read cycles: 839534
5banks busy for write cycles: 1414792
6banks busy for read cycles: 255361
6banks busy for write cycles: 469009
7banks busy for read cycles: 73680
7banks busy for write cycles: 127683
8banks busy for read cycles: 136454
8banks busy for write cycles: 156775

CPU 0 Branch Prediction Accuracy: 82.1817% MPKI: 30.9059 Average ROB Occupancy at Mispredict: 20.8408
Branch types
NOT_BRANCH: 20663421 82.6537%
BRANCH_DIRECT_JUMP: 93827 0.375308%
BRANCH_INDIRECT: 0 0%
BRANCH_CONDITIONAL: 4242422 16.9697%
BRANCH_DIRECT_CALL: 6 2.4e-05%
BRANCH_INDIRECT_CALL: 0 0%
BRANCH_RETURN: 6 2.4e-05%
BRANCH_OTHER: 0 0%

DRAM PAGES: 1048576
Allocated PAGES: 9249
