
*** ChampSim Multicore Out-of-Order Simulator ***

Warmup Instructions: 25000000
Simulation Instructions: 25000000
Number of CPUs: 1
LLC sets: 2048
LLC ways: 16
Off-chip DRAM Size: 4096 MB Channels: 1 Width: 64-bit Data Rate: 6400 MT/s
CPU 0 runs ../traces/bc-12.trace.gz
.gz
CPU 0 Bimodal branch predictor
BTB has LRU replacement policy
ITLB has LRU replacement policy
DTLB has LRU replacement policy
STLB has LRU replacement policy
L1I has LRU replacement policy
CPU 0 L1D - Pythia Preftecher 
L1D has LRU replacement policy
L2C has LRU replacement policy
LLC has LRU replacement policy
Heartbeat CPU 0 instructions: 10000001 cycles: 3501432 heartbeat IPC: 2.85597 cumulative IPC: 2.85597 (Simulation time: 0 hr 0 min 54 sec) 
Heartbeat CPU 0 instructions: 20000000 cycles: 6486511 heartbeat IPC: 3.34999 cumulative IPC: 3.08332 (Simulation time: 0 hr 1 min 57 sec) 

Warmup complete CPU 0 instructions: 25000004 cycles: 7975827 (Simulation time: 0 hr 2 min 28 sec) 

Heartbeat CPU 0 instructions: 30000001 cycles: 48077587 heartbeat IPC: 0.240436 cumulative IPC: 0.124683 (Simulation time: 0 hr 3 min 16 sec) 
Heartbeat CPU 0 instructions: 40000003 cycles: 127492195 heartbeat IPC: 0.125921 cumulative IPC: 0.125506 (Simulation time: 0 hr 4 min 52 sec) 
Heartbeat CPU 0 instructions: 50000000 cycles: 205804567 heartbeat IPC: 0.127694 cumulative IPC: 0.126372 (Simulation time: 0 hr 6 min 28 sec) 
Finished CPU 0 instructions: 25000000 cycles: 197828741 cumulative IPC: 0.126372 (Simulation time: 0 hr 6 min 28 sec) 

ChampSim completed all CPUs

Region of Interest Statistics

CPU 0 cumulative IPC: 0.126372 instructions: 25000000 cycles: 197828741
ITLB TOTAL     ACCESS:    3973856  HIT:    3973856  MISS:          0  HIT %:        100  MISS %:          0   MPKI: 0
ITLB LOAD TRANSLATION ACCESS:    3973856  HIT:    3973856  MISS:          0  HIT %:        100  MISS %:          0   MPKI: 0
ITLB PREFETCH  REQUESTED:          0  ISSUED:          0  USEFUL:          0  USELESS:          0
ITLB USEFUL LOAD PREFETCHES:          0 PREFETCH ISSUED TO LOWER LEVEL:          0  ACCURACY: -nan
ITLB TIMELY PREFETCHES:          0 LATE PREFETCHES: 0 DROPPED PREFETCHES: 0
ITLB PREFETCHES SAME FILL-ORIGIN LEVEL: 0 DIFFERENT FILL-ORIGIN LEVEL: 0
ITLB AVERAGE MISS LATENCY: -nan cycles
ITLB RQ	ACCESS:    4138876	FORWARD:          0	MERGED:     165020	TO_CACHE:    3973856

DTLB TOTAL     ACCESS:    7587271  HIT:    6777199  MISS:     810072  HIT %:    89.3233  MISS %:    10.6767   MPKI: 32.4029
DTLB LOAD TRANSLATION ACCESS:    7587271  HIT:    6777199  MISS:     810072  HIT %:    89.3233  MISS %:    10.6767   MPKI: 32.4029
DTLB PREFETCH  REQUESTED:          0  ISSUED:          0  USEFUL:          0  USELESS:          0
DTLB USEFUL LOAD PREFETCHES:          0 PREFETCH ISSUED TO LOWER LEVEL:          0  ACCURACY: -nan
DTLB TIMELY PREFETCHES:          0 LATE PREFETCHES: 0 DROPPED PREFETCHES: 0
DTLB PREFETCHES SAME FILL-ORIGIN LEVEL: 0 DIFFERENT FILL-ORIGIN LEVEL: 0
DTLB AVERAGE MISS LATENCY: 24.1674 cycles
DTLB RQ	ACCESS:    8222676	FORWARD:          0	MERGED:     553157	TO_CACHE:    7669519

STLB TOTAL     ACCESS:    6141495  HIT:    5762304  MISS:     379191  HIT %:    93.8258  MISS %:    6.17425   MPKI: 15.1676
STLB LOAD TRANSLATION ACCESS:     810072  HIT:     430883  MISS:     379189  HIT %:    53.1907  MISS %:    46.8093   MPKI: 15.1676
STLB TRANSLATION FROM L1D PREFETCHER ACCESS:    5331423  HIT:    5331421  MISS:          2  HIT %:        100  MISS %: 3.75134e-05   MPKI: 8e-05
STLB PREFETCH  REQUESTED:          0  ISSUED:          0  USEFUL:          2  USELESS:          0
STLB USEFUL LOAD PREFETCHES:          2 PREFETCH ISSUED TO LOWER LEVEL:          0  ACCURACY: inf
STLB TIMELY PREFETCHES:          2 LATE PREFETCHES: 0 DROPPED PREFETCHES: 0
STLB PREFETCHES SAME FILL-ORIGIN LEVEL: 0 DIFFERENT FILL-ORIGIN LEVEL: 0
STLB AVERAGE MISS LATENCY: 32.3539 cycles
STLB RQ	ACCESS:   16553580	FORWARD:          0	MERGED:   10412085	TO_CACHE:    6141495

STLB Hit, L1D data hit: 0
STLB Hit, L2C data hit: 0
STLB Hit, LLC data hit: 0
STLB Hit, LLC data miss: 0
STLB STLB hints to L2: 0
L1D TOTAL     ACCESS:   21931980  HIT:   17078615  MISS:    4853365  HIT %:    77.8708  MISS %:    22.1292   MPKI: 194.135
L1D LOAD      ACCESS:    6698648  HIT:    4815539  MISS:    1883109  HIT %:    71.8882  MISS %:    28.1118   MPKI: 75.3244
L1D RFO       ACCESS:    1478225  HIT:    1466248  MISS:      11977  HIT %:    99.1898  MISS %:   0.810228   MPKI: 0.47908
L1D PREFETCH  ACCESS:   13755107  HIT:   10796828  MISS:    2958279  HIT %:    78.4932  MISS %:    21.5068   MPKI: 118.331
AGUS PREFETCH L1 MISS: 0
L1D PREFETCH  REQUESTED:   32265902  ISSUED:   32179771  USEFUL:     187081  USELESS:    2771036
L1D USEFUL LOAD PREFETCHES:     187081 PREFETCH ISSUED TO LOWER LEVEL:    2993678  ACCURACY: 6.2492
L1D TIMELY PREFETCHES:     187081 LATE PREFETCHES: 35397 DROPPED PREFETCHES: 0
L1D PREFETCHES SAME FILL-ORIGIN LEVEL: 2993678 DIFFERENT FILL-ORIGIN LEVEL: 0
L1D AVERAGE MISS LATENCY: 183.865 cycles
L1D RQ	ACCESS:    6971439	FORWARD:          0	MERGED:     228829	TO_CACHE:    6726146
L1D WQ	ACCESS:    1534756	FORWARD:      16499	MERGED:      38226	TO_CACHE:    1496530
L1D PQ	ACCESS:   16436263	FORWARD:          0	MERGED:     692720	TO_CACHE:   15743508

L1D UNIQUE REGIONS ACCESSED: 0
L1D REGIONS CONFLICTS: 0
L1D Cross Page Prefetch Requests: 0
L1D Same Page Prefetch Requests: 25274544
L1D ROI Sum of L1D PQ occupancy: 218029499
L1D PREFETCHES PUSHED FROM L2C: 0
L1I TOTAL     ACCESS:    4138876  HIT:    4138876  MISS:          0  HIT %:        100  MISS %:          0   MPKI: 0
L1I LOAD      ACCESS:    4138876  HIT:    4138876  MISS:          0  HIT %:        100  MISS %:          0   MPKI: 0
L1I PREFETCH  REQUESTED:          0  ISSUED:          0  USEFUL:          0  USELESS:          0
L1I USEFUL LOAD PREFETCHES:          0 PREFETCH ISSUED TO LOWER LEVEL:          0  ACCURACY: -nan
L1I TIMELY PREFETCHES:          0 LATE PREFETCHES: 0 DROPPED PREFETCHES: 0
L1I PREFETCHES SAME FILL-ORIGIN LEVEL: 0 DIFFERENT FILL-ORIGIN LEVEL: 0
L1I AVERAGE MISS LATENCY: -nan cycles
L1I RQ	ACCESS:    5852744	FORWARD:          0	MERGED:    1713868	TO_CACHE:    4138876

BTB TOTAL     ACCESS:    4324552  HIT:    4324538  MISS:         14  HIT %:    99.9997  MISS %: 0.000323733   MPKI: 0.00056
BTB BRANCH_DIRECT_JUMP	ACCESS:      93827  HIT:      93823  MISS:          4
BTB BRANCH_INDIRECT	ACCESS:          0  HIT:          0  MISS:          0
BTB BRANCH_CONDITIONAL	ACCESS:    4230713  HIT:    4230705  MISS:          8
BTB BRANCH_DIRECT_CALL	ACCESS:          6  HIT:          5  MISS:          1
BTB BRANCH_INDIRECT_CALL	ACCESS:          0  HIT:          0  MISS:          0
BTB BRANCH_RETURN	ACCESS:          6  HIT:          5  MISS:          1
BTB BRANCH_OTHER ACCESS:          0  HIT:          0  MISS:          0

L2C TOTAL     ACCESS:    5985874  HIT:    1315289  MISS:    4670585  HIT %:    21.9732  MISS %:    78.0268   MPKI: 186.823
L2C LOAD      ACCESS:    1847712  HIT:     102366  MISS:    1745346  HIT %:    5.54015  MISS %:    94.4599   MPKI: 69.8138
L2C DATA LOAD MPKI: 69.8138
L2C INSTRUCTION LOAD MPKI: 0
L2C RFO       ACCESS:      11977  HIT:        104  MISS:      11873  HIT %:   0.868331  MISS %:    99.1317   MPKI: 0.47492
L2C PREFETCH  ACCESS:    2993676  HIT:     146475  MISS:    2847201  HIT %:    4.89281  MISS %:    95.1072   MPKI: 113.888
AGUS PREFETCH L1 MISS: 0
L2C DATA PREFETCH MPKI: 113.888
L2C INSTRUCTION PREFETCH MPKI: 0
L2C WRITEBACK ACCESS:     753317  HIT:     751877  MISS:       1440  HIT %:    99.8088  MISS %:   0.191155   MPKI: 0.0576
L2C LOAD TRANSLATION ACCESS:     379190  HIT:     314465  MISS:      64725  HIT %:    82.9307  MISS %:    17.0693   MPKI: 2.589
L2C TRANSLATION FROM L1D PREFETCHER ACCESS:          2  HIT:          2  MISS:          0  HIT %:        100  MISS %:          0   MPKI: 0
L2C PREFETCH  REQUESTED:          0  ISSUED:          0  USEFUL:      24115  USELESS:    2821292
L2C USEFUL LOAD PREFETCHES:      24115 PREFETCH ISSUED TO LOWER LEVEL:    2847204  ACCURACY: 0.846971
L2C TIMELY PREFETCHES:      24115 LATE PREFETCHES: 0 DROPPED PREFETCHES: 0
L2C PREFETCHES SAME FILL-ORIGIN LEVEL: 0 DIFFERENT FILL-ORIGIN LEVEL: 0
L2C AVERAGE MISS LATENCY: 176.136 cycles
L2C RQ	ACCESS:    2238883	FORWARD:          0	MERGED:          0	TO_CACHE:    2238883
L2C WQ	ACCESS:     753317	FORWARD:          1	MERGED:          0	TO_CACHE:     753317
L2C PQ	ACCESS:    2993678	FORWARD:          0	MERGED:          0	TO_CACHE:    2993677

L2C Instructions Evicting Data 0
L2C Translations Evicting Data 61749
L2C Data Evicting Data 4542689
L2C Instructions Evicting Instructions 0
L2C Translations Evicting Instructions 0
L2C Data Evicting Instructions 0
L2C Instructions Evicting Translations 0
L2C Translations Evicting Translations 2976
L2C Data Evicting Translations 61731
L2C Dense regions hint from L2: 0
PSCL5 TOTAL     ACCESS:     379191  HIT:     379191  MISS:          0  HIT %:        100  MISS %:          0   MPKI: 0
PSCL5 LOAD TRANSLATION ACCESS:     379189  HIT:     379189  MISS:          0  HIT %:        100  MISS %:          0   MPKI: 0
PSCL5 TRANSLATION FROM L1D PREFETCHER ACCESS:          2  HIT:          2  MISS:          0  HIT %:        100  MISS %:          0   MPKI: 0
PSCL5 PREFETCH  REQUESTED:          0  ISSUED:          0  USEFUL:          0  USELESS:          0
PSCL5 USEFUL LOAD PREFETCHES:          0 PREFETCH ISSUED TO LOWER LEVEL:          0  ACCURACY: -nan
PSCL5 TIMELY PREFETCHES:          0 LATE PREFETCHES: 0 DROPPED PREFETCHES: 0
PSCL5 PREFETCHES SAME FILL-ORIGIN LEVEL: 0 DIFFERENT FILL-ORIGIN LEVEL: 0

PSCL4 TOTAL     ACCESS:     379191  HIT:     379191  MISS:          0  HIT %:        100  MISS %:          0   MPKI: 0
PSCL4 LOAD TRANSLATION ACCESS:     379189  HIT:     379189  MISS:          0  HIT %:        100  MISS %:          0   MPKI: 0
PSCL4 TRANSLATION FROM L1D PREFETCHER ACCESS:          2  HIT:          2  MISS:          0  HIT %:        100  MISS %:          0   MPKI: 0
PSCL4 PREFETCH  REQUESTED:          0  ISSUED:          0  USEFUL:          0  USELESS:          0
PSCL4 USEFUL LOAD PREFETCHES:          0 PREFETCH ISSUED TO LOWER LEVEL:          0  ACCURACY: -nan
PSCL4 TIMELY PREFETCHES:          0 LATE PREFETCHES: 0 DROPPED PREFETCHES: 0
PSCL4 PREFETCHES SAME FILL-ORIGIN LEVEL: 0 DIFFERENT FILL-ORIGIN LEVEL: 0

PSCL3 TOTAL     ACCESS:     379191  HIT:     379191  MISS:          0  HIT %:        100  MISS %:          0   MPKI: 0
PSCL3 LOAD TRANSLATION ACCESS:     379189  HIT:     379189  MISS:          0  HIT %:        100  MISS %:          0   MPKI: 0
PSCL3 TRANSLATION FROM L1D PREFETCHER ACCESS:          2  HIT:          2  MISS:          0  HIT %:        100  MISS %:          0   MPKI: 0
PSCL3 PREFETCH  REQUESTED:          0  ISSUED:          0  USEFUL:          0  USELESS:          0
PSCL3 USEFUL LOAD PREFETCHES:          0 PREFETCH ISSUED TO LOWER LEVEL:          0  ACCURACY: -nan
PSCL3 TIMELY PREFETCHES:          0 LATE PREFETCHES: 0 DROPPED PREFETCHES: 0
PSCL3 PREFETCHES SAME FILL-ORIGIN LEVEL: 0 DIFFERENT FILL-ORIGIN LEVEL: 0

PSCL2 TOTAL     ACCESS:     379191  HIT:     379184  MISS:          7  HIT %:    99.9982  MISS %: 0.00184604   MPKI: 0.00028
PSCL2 LOAD TRANSLATION ACCESS:     379189  HIT:     379182  MISS:          7  HIT %:    99.9982  MISS %: 0.00184605   MPKI: 0.00028
PSCL2 TRANSLATION FROM L1D PREFETCHER ACCESS:          2  HIT:          2  MISS:          0  HIT %:        100  MISS %:          0   MPKI: 0
PSCL2 PREFETCH  REQUESTED:          0  ISSUED:          0  USEFUL:          0  USELESS:          0
PSCL2 USEFUL LOAD PREFETCHES:          0 PREFETCH ISSUED TO LOWER LEVEL:          0  ACCURACY: -nan
PSCL2 TIMELY PREFETCHES:          0 LATE PREFETCHES: 0 DROPPED PREFETCHES: 0
PSCL2 PREFETCHES SAME FILL-ORIGIN LEVEL: 0 DIFFERENT FILL-ORIGIN LEVEL: 0

LLC TOTAL     ACCESS:    5416255  HIT:    1797831  MISS:    3618424  HIT %:    33.1932  MISS %:    66.8068   MPKI: 144.737
LLC LOAD      ACCESS:    1745346  HIT:     476442  MISS:    1268904  HIT %:    27.2979  MISS %:    72.7021   MPKI: 50.7562
LLC RFO       ACCESS:      11873  HIT:        236  MISS:      11637  HIT %:     1.9877  MISS %:    98.0123   MPKI: 0.46548
LLC PREFETCH  ACCESS:    2847201  HIT:     517759  MISS:    2329442  HIT %:    18.1848  MISS %:    81.8152   MPKI: 93.1777
AGUS PREFETCH L1 MISS: 0
LLC WRITEBACK ACCESS:     747110  HIT:     746449  MISS:        661  HIT %:    99.9115  MISS %:  0.0884743   MPKI: 0.02644
LLC LOAD TRANSLATION ACCESS:      64725  HIT:      56945  MISS:       7780  HIT %:    87.9799  MISS %:    12.0201   MPKI: 0.3112
LLC PREFETCH  REQUESTED:          0  ISSUED:          0  USEFUL:     137340  USELESS:    2185201
LLC USEFUL LOAD PREFETCHES:     137340 PREFETCH ISSUED TO LOWER LEVEL:    2329446  ACCURACY: 5.89582
LLC TIMELY PREFETCHES:     137340 LATE PREFETCHES: 0 DROPPED PREFETCHES: 0
LLC PREFETCHES SAME FILL-ORIGIN LEVEL: 0 DIFFERENT FILL-ORIGIN LEVEL: 0
LLC AVERAGE MISS LATENCY: 188.601 cycles
LLC RQ	ACCESS:    1821946	FORWARD:          0	MERGED:          0	TO_CACHE:    1821946
LLC WQ	ACCESS:     747110	FORWARD:          0	MERGED:          0	TO_CACHE:     747110
LLC PQ	ACCESS:    2847204	FORWARD:          0	MERGED:          0	TO_CACHE:    2847204

LLC Dense regions hint to LLC: 0

RAW hits: 164470
Loads Generated: 7135909
Loads sent to L1D: 6971439
Stores Generated: 1534751
Stores sent to L1D: 1534756
Major fault: 0 Minor fault: 9249
Allocated PAGES: 9249
CPU 0 L1D nextline prefetcher final stats
 Action = 30 : 365717
 Action = 23 : 405857
 Action = 16 : 465081
 Action = 11 : 667117
 Action = 10 : 695846
 Action = 22 : 430348
 Action = 5 : 985393
 Action = 4 : 987742
 Action = 32 : 367243
 Action = -3 : 1118003
 Action = 12 : 652360
 Action = -6 : 955416
 Action = 3 : 1045172
 Action = 1 : 1076143
 Action = -1 : 1067113
 Action = 0 : 12667

DRAM Statistics
 CHANNEL 0
 RQ ROW_BUFFER_HIT:     882504  ROW_BUFFER_MISS:    2734914
 DBUS_CONGESTED:       2192
 WQ ROW_BUFFER_HIT:     432650  ROW_BUFFER_MISS:     259206  FULL:          0

 AVG_CONGESTED_CYCLE: 5
 All warmup complete: 2
Channel 0 Bank busy for read cycles: 0
Channel 0 Bank busy for write cycles: 0
Channel 0
Rank 0
0banks busy for read cycles: 582400
0banks busy for write cycles: 1138
1banks busy for read cycles: 38109634
1banks busy for write cycles: 664548
2banks busy for read cycles: 32978983
2banks busy for write cycles: 1000453
3banks busy for read cycles: 30309314
3banks busy for write cycles: 1568708
4banks busy for read cycles: 23758185
4banks busy for write cycles: 2440615
5banks busy for read cycles: 15656293
5banks busy for write cycles: 3899416
6banks busy for read cycles: 8505477
6banks busy for write cycles: 6299123
7banks busy for read cycles: 3812011
7banks busy for write cycles: 11059170
8banks busy for read cycles: 1065747
8banks busy for write cycles: 16117527

CPU 0 Branch Prediction Accuracy: 82.1817% MPKI: 30.9059 Average ROB Occupancy at Mispredict: 22.1098
Branch types
NOT_BRANCH: 20663421 82.6537%
BRANCH_DIRECT_JUMP: 93827 0.375308%
BRANCH_INDIRECT: 0 0%
BRANCH_CONDITIONAL: 4242422 16.9697%
BRANCH_DIRECT_CALL: 6 2.4e-05%
BRANCH_INDIRECT_CALL: 0 0%
BRANCH_RETURN: 6 2.4e-05%
BRANCH_OTHER: 0 0%

DRAM PAGES: 1048576
Allocated PAGES: 9249
