
*** ChampSim Multicore Out-of-Order Simulator ***

Warmup Instructions: 25000000
Simulation Instructions: 25000000
Number of CPUs: 1
LLC sets: 2048
LLC ways: 16
Off-chip DRAM Size: 4096 MB Channels: 1 Width: 64-bit Data Rate: 6400 MT/s
CPU 0 runs ../traces/bc-3.trace.gz
.gz
CPU 0 Bimodal branch predictor
BTB has LRU replacement policy
ITLB has LRU replacement policy
DTLB has LRU replacement policy
STLB has LRU replacement policy
L1I has LRU replacement policy
L1D has LRU replacement policy
L2C has LRU replacement policy
LLC has LRU replacement policy
Heartbeat CPU 0 instructions: 10000002 cycles: 3498339 heartbeat IPC: 2.8585 cumulative IPC: 2.8585 (Simulation time: 0 hr 0 min 15 sec) 
Heartbeat CPU 0 instructions: 20000003 cycles: 6386430 heartbeat IPC: 3.4625 cumulative IPC: 3.13164 (Simulation time: 0 hr 0 min 27 sec) 

Warmup complete CPU 0 instructions: 25000002 cycles: 7821827 (Simulation time: 0 hr 0 min 33 sec) 

Heartbeat CPU 0 instructions: 30000003 cycles: 40167651 heartbeat IPC: 0.296022 cumulative IPC: 0.154579 (Simulation time: 0 hr 0 min 44 sec) 
Heartbeat CPU 0 instructions: 40000000 cycles: 104514680 heartbeat IPC: 0.155407 cumulative IPC: 0.15513 (Simulation time: 0 hr 1 min 6 sec) 
Heartbeat CPU 0 instructions: 50000000 cycles: 169489681 heartbeat IPC: 0.153905 cumulative IPC: 0.154638 (Simulation time: 0 hr 1 min 29 sec) 
Finished CPU 0 instructions: 25000002 cycles: 161667892 cumulative IPC: 0.154638 (Simulation time: 0 hr 1 min 29 sec) 

ChampSim completed all CPUs

Region of Interest Statistics

CPU 0 cumulative IPC: 0.154638 instructions: 25000002 cycles: 161667892
ITLB TOTAL     ACCESS:    5101732  HIT:    5101732  MISS:          0  HIT %:        100  MISS %:          0   MPKI: 0
ITLB LOAD TRANSLATION ACCESS:    5101732  HIT:    5101732  MISS:          0  HIT %:        100  MISS %:          0   MPKI: 0
ITLB PREFETCH  REQUESTED:          0  ISSUED:          0  USEFUL:          0  USELESS:          0
ITLB USEFUL LOAD PREFETCHES:          0 PREFETCH ISSUED TO LOWER LEVEL:          0  ACCURACY: -nan
ITLB TIMELY PREFETCHES:          0 LATE PREFETCHES: 0 DROPPED PREFETCHES: 0
ITLB PREFETCHES SAME FILL-ORIGIN LEVEL: 0 DIFFERENT FILL-ORIGIN LEVEL: 0
ITLB AVERAGE MISS LATENCY: -nan cycles
ITLB RQ	ACCESS:    5210374	FORWARD:          0	MERGED:     108642	TO_CACHE:    5101732

DTLB TOTAL     ACCESS:    6025636  HIT:    5027827  MISS:     997809  HIT %:    83.4406  MISS %:    16.5594   MPKI: 39.9124
DTLB LOAD TRANSLATION ACCESS:    6025636  HIT:    5027827  MISS:     997809  HIT %:    83.4406  MISS %:    16.5594   MPKI: 39.9124
DTLB PREFETCH  REQUESTED:          0  ISSUED:          0  USEFUL:          0  USELESS:          0
DTLB USEFUL LOAD PREFETCHES:          0 PREFETCH ISSUED TO LOWER LEVEL:          0  ACCURACY: -nan
DTLB TIMELY PREFETCHES:          0 LATE PREFETCHES: 0 DROPPED PREFETCHES: 0
DTLB PREFETCHES SAME FILL-ORIGIN LEVEL: 0 DIFFERENT FILL-ORIGIN LEVEL: 0
DTLB AVERAGE MISS LATENCY: 16.8371 cycles
DTLB RQ	ACCESS:    6315163	FORWARD:          0	MERGED:     238760	TO_CACHE:    6076403

STLB TOTAL     ACCESS:     997809  HIT:     710692  MISS:     287117  HIT %:    71.2253  MISS %:    28.7747   MPKI: 11.4847
STLB LOAD TRANSLATION ACCESS:     997809  HIT:     710692  MISS:     287117  HIT %:    71.2253  MISS %:    28.7747   MPKI: 11.4847
STLB PREFETCH  REQUESTED:          0  ISSUED:          0  USEFUL:          0  USELESS:          0
STLB USEFUL LOAD PREFETCHES:          0 PREFETCH ISSUED TO LOWER LEVEL:          0  ACCURACY: -nan
STLB TIMELY PREFETCHES:          0 LATE PREFETCHES: 0 DROPPED PREFETCHES: 0
STLB PREFETCHES SAME FILL-ORIGIN LEVEL: 0 DIFFERENT FILL-ORIGIN LEVEL: 0
STLB AVERAGE MISS LATENCY: 26.6237 cycles
STLB RQ	ACCESS:     997809	FORWARD:          0	MERGED:          0	TO_CACHE:     997809

STLB Hit, L1D data hit: 0
STLB Hit, L2C data hit: 0
STLB Hit, LLC data hit: 0
STLB Hit, LLC data miss: 0
STLB STLB hints to L2: 0
L1D TOTAL     ACCESS:    6087023  HIT:    3915793  MISS:    2171230  HIT %:    64.3302  MISS %:    35.6698   MPKI: 86.8492
L1D LOAD      ACCESS:    5138777  HIT:    2978335  MISS:    2160442  HIT %:    57.9581  MISS %:    42.0419   MPKI: 86.4177
L1D RFO       ACCESS:     948246  HIT:     937458  MISS:      10788  HIT %:    98.8623  MISS %:    1.13768   MPKI: 0.43152
L1D PREFETCH  REQUESTED:          0  ISSUED:          0  USEFUL:          0  USELESS:          0
L1D USEFUL LOAD PREFETCHES:          0 PREFETCH ISSUED TO LOWER LEVEL:          0  ACCURACY: -nan
L1D TIMELY PREFETCHES:          0 LATE PREFETCHES: 0 DROPPED PREFETCHES: 0
L1D PREFETCHES SAME FILL-ORIGIN LEVEL: 0 DIFFERENT FILL-ORIGIN LEVEL: 0
L1D AVERAGE MISS LATENCY: 123.934 cycles
L1D RQ	ACCESS:    6085673	FORWARD:          0	MERGED:     724225	TO_CACHE:    5352253
L1D WQ	ACCESS:     964822	FORWARD:       9195	MERGED:       1912	TO_CACHE:     962910

L1D UNIQUE REGIONS ACCESSED: 0
L1D REGIONS CONFLICTS: 0
L1D Cross Page Prefetch Requests: 0
L1D Same Page Prefetch Requests: 0
L1D ROI Sum of L1D PQ occupancy: 0
L1D PREFETCHES PUSHED FROM L2C: 0
L1I TOTAL     ACCESS:    5210374  HIT:    5210374  MISS:          0  HIT %:        100  MISS %:          0   MPKI: 0
L1I LOAD      ACCESS:    5210374  HIT:    5210374  MISS:          0  HIT %:        100  MISS %:          0   MPKI: 0
L1I PREFETCH  REQUESTED:          0  ISSUED:          0  USEFUL:          0  USELESS:          0
L1I USEFUL LOAD PREFETCHES:          0 PREFETCH ISSUED TO LOWER LEVEL:          0  ACCURACY: -nan
L1I TIMELY PREFETCHES:          0 LATE PREFETCHES: 0 DROPPED PREFETCHES: 0
L1I PREFETCHES SAME FILL-ORIGIN LEVEL: 0 DIFFERENT FILL-ORIGIN LEVEL: 0
L1I AVERAGE MISS LATENCY: -nan cycles
L1I RQ	ACCESS:    6995804	FORWARD:          0	MERGED:    1785430	TO_CACHE:    5210374

BTB TOTAL     ACCESS:    5321400  HIT:    5321386  MISS:         14  HIT %:    99.9997  MISS %: 0.000263089   MPKI: 0.00056
BTB BRANCH_DIRECT_JUMP	ACCESS:      92556  HIT:      92552  MISS:          4
BTB BRANCH_INDIRECT	ACCESS:          0  HIT:          0  MISS:          0
BTB BRANCH_CONDITIONAL	ACCESS:    5228834  HIT:    5228826  MISS:          8
BTB BRANCH_DIRECT_CALL	ACCESS:          5  HIT:          4  MISS:          1
BTB BRANCH_INDIRECT_CALL	ACCESS:          0  HIT:          0  MISS:          0
BTB BRANCH_RETURN	ACCESS:          5  HIT:          4  MISS:          1
BTB BRANCH_OTHER ACCESS:          0  HIT:          0  MISS:          0

L2C TOTAL     ACCESS:    2942355  HIT:    1108426  MISS:    1833929  HIT %:    37.6714  MISS %:    62.3286   MPKI: 73.3572
L2C LOAD      ACCESS:    2160442  HIT:     359679  MISS:    1800763  HIT %:    16.6484  MISS %:    83.3516   MPKI: 72.0305
L2C DATA LOAD MPKI: 72.0305
L2C INSTRUCTION LOAD MPKI: 0
L2C RFO       ACCESS:      10788  HIT:        103  MISS:      10685  HIT %:   0.954765  MISS %:    99.0452   MPKI: 0.4274
L2C WRITEBACK ACCESS:     483992  HIT:     483979  MISS:         13  HIT %:    99.9973  MISS %: 0.00268599   MPKI: 0.00052
L2C LOAD TRANSLATION ACCESS:     287133  HIT:     264665  MISS:      22468  HIT %:    92.1751  MISS %:    7.82495   MPKI: 0.89872
L2C PREFETCH  REQUESTED:          0  ISSUED:          0  USEFUL:          0  USELESS:          0
L2C USEFUL LOAD PREFETCHES:          0 PREFETCH ISSUED TO LOWER LEVEL:          0  ACCURACY: -nan
L2C TIMELY PREFETCHES:          0 LATE PREFETCHES: 0 DROPPED PREFETCHES: 0
L2C PREFETCHES SAME FILL-ORIGIN LEVEL: 0 DIFFERENT FILL-ORIGIN LEVEL: 0
L2C AVERAGE MISS LATENCY: 129.437 cycles
L2C RQ	ACCESS:    2458363	FORWARD:          0	MERGED:          0	TO_CACHE:    2458363
L2C WQ	ACCESS:     483992	FORWARD:          0	MERGED:          0	TO_CACHE:     483992

L2C Instructions Evicting Data 0
L2C Translations Evicting Data 21594
L2C Data Evicting Data 1789965
L2C Instructions Evicting Instructions 0
L2C Translations Evicting Instructions 0
L2C Data Evicting Instructions 0
L2C Instructions Evicting Translations 0
L2C Translations Evicting Translations 874
L2C Data Evicting Translations 21483
L2C Dense regions hint from L2: 0
PSCL5 TOTAL     ACCESS:     287117  HIT:     287117  MISS:          0  HIT %:        100  MISS %:          0   MPKI: 0
PSCL5 LOAD TRANSLATION ACCESS:     287117  HIT:     287117  MISS:          0  HIT %:        100  MISS %:          0   MPKI: 0
PSCL5 PREFETCH  REQUESTED:          0  ISSUED:          0  USEFUL:          0  USELESS:          0
PSCL5 USEFUL LOAD PREFETCHES:          0 PREFETCH ISSUED TO LOWER LEVEL:          0  ACCURACY: -nan
PSCL5 TIMELY PREFETCHES:          0 LATE PREFETCHES: 0 DROPPED PREFETCHES: 0
PSCL5 PREFETCHES SAME FILL-ORIGIN LEVEL: 0 DIFFERENT FILL-ORIGIN LEVEL: 0

PSCL4 TOTAL     ACCESS:     287117  HIT:     287117  MISS:          0  HIT %:        100  MISS %:          0   MPKI: 0
PSCL4 LOAD TRANSLATION ACCESS:     287117  HIT:     287117  MISS:          0  HIT %:        100  MISS %:          0   MPKI: 0
PSCL4 PREFETCH  REQUESTED:          0  ISSUED:          0  USEFUL:          0  USELESS:          0
PSCL4 USEFUL LOAD PREFETCHES:          0 PREFETCH ISSUED TO LOWER LEVEL:          0  ACCURACY: -nan
PSCL4 TIMELY PREFETCHES:          0 LATE PREFETCHES: 0 DROPPED PREFETCHES: 0
PSCL4 PREFETCHES SAME FILL-ORIGIN LEVEL: 0 DIFFERENT FILL-ORIGIN LEVEL: 0

PSCL3 TOTAL     ACCESS:     287117  HIT:     287117  MISS:          0  HIT %:        100  MISS %:          0   MPKI: 0
PSCL3 LOAD TRANSLATION ACCESS:     287117  HIT:     287117  MISS:          0  HIT %:        100  MISS %:          0   MPKI: 0
PSCL3 PREFETCH  REQUESTED:          0  ISSUED:          0  USEFUL:          0  USELESS:          0
PSCL3 USEFUL LOAD PREFETCHES:          0 PREFETCH ISSUED TO LOWER LEVEL:          0  ACCURACY: -nan
PSCL3 TIMELY PREFETCHES:          0 LATE PREFETCHES: 0 DROPPED PREFETCHES: 0
PSCL3 PREFETCHES SAME FILL-ORIGIN LEVEL: 0 DIFFERENT FILL-ORIGIN LEVEL: 0

PSCL2 TOTAL     ACCESS:     287117  HIT:     287101  MISS:         16  HIT %:    99.9944  MISS %: 0.00557264   MPKI: 0.00064
PSCL2 LOAD TRANSLATION ACCESS:     287117  HIT:     287101  MISS:         16  HIT %:    99.9944  MISS %: 0.00557264   MPKI: 0.00064
PSCL2 PREFETCH  REQUESTED:          0  ISSUED:          0  USEFUL:          0  USELESS:          0
PSCL2 USEFUL LOAD PREFETCHES:          0 PREFETCH ISSUED TO LOWER LEVEL:          0  ACCURACY: -nan
PSCL2 TIMELY PREFETCHES:          0 LATE PREFETCHES: 0 DROPPED PREFETCHES: 0
PSCL2 PREFETCHES SAME FILL-ORIGIN LEVEL: 0 DIFFERENT FILL-ORIGIN LEVEL: 0

LLC TOTAL     ACCESS:    2308815  HIT:    1220628  MISS:    1088187  HIT %:    52.8682  MISS %:    47.1318   MPKI: 43.5275
LLC LOAD      ACCESS:    1800763  HIT:     726463  MISS:    1074300  HIT %:     40.342  MISS %:     59.658   MPKI: 42.972
LLC RFO       ACCESS:      10685  HIT:        563  MISS:      10122  HIT %:    5.26907  MISS %:    94.7309   MPKI: 0.40488
LLC WRITEBACK ACCESS:     474899  HIT:     474778  MISS:        121  HIT %:    99.9745  MISS %:  0.0254791   MPKI: 0.00484
LLC LOAD TRANSLATION ACCESS:      22468  HIT:      18824  MISS:       3644  HIT %:    83.7814  MISS %:    16.2186   MPKI: 0.14576
LLC PREFETCH  REQUESTED:          0  ISSUED:          0  USEFUL:          0  USELESS:          0
LLC USEFUL LOAD PREFETCHES:          0 PREFETCH ISSUED TO LOWER LEVEL:          0  ACCURACY: -nan
LLC TIMELY PREFETCHES:          0 LATE PREFETCHES: 0 DROPPED PREFETCHES: 0
LLC PREFETCHES SAME FILL-ORIGIN LEVEL: 0 DIFFERENT FILL-ORIGIN LEVEL: 0
LLC AVERAGE MISS LATENCY: 167.505 cycles
LLC RQ	ACCESS:    1833916	FORWARD:          0	MERGED:          0	TO_CACHE:    1833916
LLC WQ	ACCESS:     474899	FORWARD:          0	MERGED:          0	TO_CACHE:     474899

LLC Dense regions hint to LLC: 0

RAW hits: 25130
Loads Generated: 6110804
Loads sent to L1D: 6085673
Stores Generated: 964820
Stores sent to L1D: 964822
Major fault: 0 Minor fault: 10197
Allocated PAGES: 10197

DRAM Statistics
 CHANNEL 0
 RQ ROW_BUFFER_HIT:     164572  ROW_BUFFER_MISS:     923490
 DBUS_CONGESTED:        408
 WQ ROW_BUFFER_HIT:     192725  ROW_BUFFER_MISS:     227480  FULL:          0

 AVG_CONGESTED_CYCLE: 4
 All warmup complete: 2
Channel 0 Bank busy for read cycles: 0
Channel 0 Bank busy for write cycles: 0
Channel 0
Rank 0
0banks busy for read cycles: 17655953
0banks busy for write cycles: 129315
1banks busy for read cycles: 53412619
1banks busy for write cycles: 23855083
2banks busy for read cycles: 29215981
2banks busy for write cycles: 16515083
3banks busy for read cycles: 8186422
3banks busy for write cycles: 7249787
4banks busy for read cycles: 1866942
4banks busy for write cycles: 2309757
5banks busy for read cycles: 327138
5banks busy for write cycles: 552937
6banks busy for read cycles: 59835
6banks busy for write cycles: 93625
7banks busy for read cycles: 23096
7banks busy for write cycles: 21341
8banks busy for read cycles: 101562
8banks busy for write cycles: 91417

CPU 0 Branch Prediction Accuracy: 89.7017% MPKI: 21.9875 Average ROB Occupancy at Mispredict: 29.7355
Branch types
NOT_BRANCH: 19662039 78.6481%
BRANCH_DIRECT_JUMP: 92556 0.370224%
BRANCH_INDIRECT: 0 0%
BRANCH_CONDITIONAL: 5245069 20.9803%
BRANCH_DIRECT_CALL: 5 2e-05%
BRANCH_INDIRECT_CALL: 0 0%
BRANCH_RETURN: 5 2e-05%
BRANCH_OTHER: 0 0%

DRAM PAGES: 1048576
Allocated PAGES: 10197
