
*** ChampSim Multicore Out-of-Order Simulator ***

Warmup Instructions: 25000000
Simulation Instructions: 25000000
Number of CPUs: 1
LLC sets: 2048
LLC ways: 16
Off-chip DRAM Size: 4096 MB Channels: 1 Width: 64-bit Data Rate: 6400 MT/s
CPU 0 runs ../traces/bc-3.trace.gz
.gz
CPU 0 Bimodal branch predictor
BTB has LRU replacement policy
ITLB has LRU replacement policy
DTLB has LRU replacement policy
STLB has LRU replacement policy
L1I has LRU replacement policy
CPU 0 L1D - Pythia Preftecher 
L1D has LRU replacement policy
L2C has LRU replacement policy
LLC has LRU replacement policy
Heartbeat CPU 0 instructions: 10000002 cycles: 3494453 heartbeat IPC: 2.86168 cumulative IPC: 2.86168 (Simulation time: 0 hr 0 min 52 sec) 
Heartbeat CPU 0 instructions: 20000003 cycles: 6390808 heartbeat IPC: 3.45262 cumulative IPC: 3.1295 (Simulation time: 0 hr 1 min 48 sec) 

Warmup complete CPU 0 instructions: 25000002 cycles: 7834419 (Simulation time: 0 hr 2 min 17 sec) 

Heartbeat CPU 0 instructions: 30000003 cycles: 39912807 heartbeat IPC: 0.298312 cumulative IPC: 0.155868 (Simulation time: 0 hr 2 min 57 sec) 
Heartbeat CPU 0 instructions: 40000000 cycles: 103894312 heartbeat IPC: 0.156295 cumulative IPC: 0.156153 (Simulation time: 0 hr 4 min 21 sec) 
Heartbeat CPU 0 instructions: 50000000 cycles: 168624804 heartbeat IPC: 0.154487 cumulative IPC: 0.155482 (Simulation time: 0 hr 5 min 43 sec) 
Finished CPU 0 instructions: 25000002 cycles: 160790423 cumulative IPC: 0.155482 (Simulation time: 0 hr 5 min 43 sec) 

ChampSim completed all CPUs

Region of Interest Statistics

CPU 0 cumulative IPC: 0.155482 instructions: 25000002 cycles: 160790423
ITLB TOTAL     ACCESS:    5101257  HIT:    5101257  MISS:          0  HIT %:        100  MISS %:          0   MPKI: 0
ITLB LOAD TRANSLATION ACCESS:    5101257  HIT:    5101257  MISS:          0  HIT %:        100  MISS %:          0   MPKI: 0
ITLB PREFETCH  REQUESTED:          0  ISSUED:          0  USEFUL:          0  USELESS:          0
ITLB USEFUL LOAD PREFETCHES:          0 PREFETCH ISSUED TO LOWER LEVEL:          0  ACCURACY: -nan
ITLB TIMELY PREFETCHES:          0 LATE PREFETCHES: 0 DROPPED PREFETCHES: 0
ITLB PREFETCHES SAME FILL-ORIGIN LEVEL: 0 DIFFERENT FILL-ORIGIN LEVEL: 0
ITLB AVERAGE MISS LATENCY: -nan cycles
ITLB RQ	ACCESS:    5210190	FORWARD:          0	MERGED:     108933	TO_CACHE:    5101257

DTLB TOTAL     ACCESS:    6092060  HIT:    5094206  MISS:     997854  HIT %:    83.6204  MISS %:    16.3796   MPKI: 39.9142
DTLB LOAD TRANSLATION ACCESS:    6092060  HIT:    5094206  MISS:     997854  HIT %:    83.6204  MISS %:    16.3796   MPKI: 39.9142
DTLB PREFETCH  REQUESTED:          0  ISSUED:          0  USEFUL:          0  USELESS:          0
DTLB USEFUL LOAD PREFETCHES:          0 PREFETCH ISSUED TO LOWER LEVEL:          0  ACCURACY: -nan
DTLB TIMELY PREFETCHES:          0 LATE PREFETCHES: 0 DROPPED PREFETCHES: 0
DTLB PREFETCHES SAME FILL-ORIGIN LEVEL: 0 DIFFERENT FILL-ORIGIN LEVEL: 0
DTLB AVERAGE MISS LATENCY: 18.941 cycles
DTLB RQ	ACCESS:    6307116	FORWARD:          0	MERGED:     147525	TO_CACHE:    6159591

STLB TOTAL     ACCESS:    5573749  HIT:    5284731  MISS:     289018  HIT %:    94.8147  MISS %:    5.18534   MPKI: 11.5607
STLB LOAD TRANSLATION ACCESS:     997854  HIT:     708836  MISS:     289018  HIT %:     71.036  MISS %:     28.964   MPKI: 11.5607
STLB TRANSLATION FROM L1D PREFETCHER ACCESS:    4575895  HIT:    4575895  MISS:          0  HIT %:        100  MISS %:          0   MPKI: 0
STLB PREFETCH  REQUESTED:          0  ISSUED:          0  USEFUL:          0  USELESS:          0
STLB USEFUL LOAD PREFETCHES:          0 PREFETCH ISSUED TO LOWER LEVEL:          0  ACCURACY: -nan
STLB TIMELY PREFETCHES:          0 LATE PREFETCHES: 0 DROPPED PREFETCHES: 0
STLB PREFETCHES SAME FILL-ORIGIN LEVEL: 0 DIFFERENT FILL-ORIGIN LEVEL: 0
STLB AVERAGE MISS LATENCY: 33.8923 cycles
STLB RQ	ACCESS:   13945611	FORWARD:          0	MERGED:    8371862	TO_CACHE:    5573749

STLB Hit, L1D data hit: 0
STLB Hit, L2C data hit: 0
STLB Hit, LLC data hit: 0
STLB Hit, LLC data miss: 0
STLB STLB hints to L2: 0
L1D TOTAL     ACCESS:   17142874  HIT:   11933841  MISS:    5209033  HIT %:     69.614  MISS %:     30.386   MPKI: 208.361
L1D LOAD      ACCESS:    5317704  HIT:    3304159  MISS:    2013545  HIT %:    62.1351  MISS %:    37.8649   MPKI: 80.5418
L1D RFO       ACCESS:     947926  HIT:     937099  MISS:      10827  HIT %:    98.8578  MISS %:    1.14218   MPKI: 0.43308
L1D PREFETCH  ACCESS:   10877244  HIT:    7692583  MISS:    3184661  HIT %:    70.7218  MISS %:    29.2782   MPKI: 127.386
AGUS PREFETCH L1 MISS: 0
L1D PREFETCH  REQUESTED:   26531976  ISSUED:   26449294  USEFUL:     157165  USELESS:    3027350
L1D USEFUL LOAD PREFETCHES:     157165 PREFETCH ISSUED TO LOWER LEVEL:    3214320  ACCURACY: 4.88953
L1D TIMELY PREFETCHES:     157165 LATE PREFETCHES: 29662 DROPPED PREFETCHES: 0
L1D PREFETCHES SAME FILL-ORIGIN LEVEL: 3214320 DIFFERENT FILL-ORIGIN LEVEL: 0
L1D AVERAGE MISS LATENCY: 165.931 cycles
L1D RQ	ACCESS:    6079791	FORWARD:          0	MERGED:     726315	TO_CACHE:    5344531
L1D WQ	ACCESS:     964822	FORWARD:       8957	MERGED:       2237	TO_CACHE:     962585
L1D PQ	ACCESS:   13501537	FORWARD:          0	MERGED:     553768	TO_CACHE:   12947757

L1D UNIQUE REGIONS ACCESSED: 0
L1D REGIONS CONFLICTS: 0
L1D Cross Page Prefetch Requests: 0
L1D Same Page Prefetch Requests: 21791534
L1D ROI Sum of L1D PQ occupancy: 193407548
L1D PREFETCHES PUSHED FROM L2C: 0
L1I TOTAL     ACCESS:    5210190  HIT:    5210190  MISS:          0  HIT %:        100  MISS %:          0   MPKI: 0
L1I LOAD      ACCESS:    5210190  HIT:    5210190  MISS:          0  HIT %:        100  MISS %:          0   MPKI: 0
L1I PREFETCH  REQUESTED:          0  ISSUED:          0  USEFUL:          0  USELESS:          0
L1I USEFUL LOAD PREFETCHES:          0 PREFETCH ISSUED TO LOWER LEVEL:          0  ACCURACY: -nan
L1I TIMELY PREFETCHES:          0 LATE PREFETCHES: 0 DROPPED PREFETCHES: 0
L1I PREFETCHES SAME FILL-ORIGIN LEVEL: 0 DIFFERENT FILL-ORIGIN LEVEL: 0
L1I AVERAGE MISS LATENCY: -nan cycles
L1I RQ	ACCESS:    6995753	FORWARD:          0	MERGED:    1785563	TO_CACHE:    5210190

BTB TOTAL     ACCESS:    5321400  HIT:    5321386  MISS:         14  HIT %:    99.9997  MISS %: 0.000263089   MPKI: 0.00056
BTB BRANCH_DIRECT_JUMP	ACCESS:      92556  HIT:      92552  MISS:          4
BTB BRANCH_INDIRECT	ACCESS:          0  HIT:          0  MISS:          0
BTB BRANCH_CONDITIONAL	ACCESS:    5228834  HIT:    5228826  MISS:          8
BTB BRANCH_DIRECT_CALL	ACCESS:          5  HIT:          4  MISS:          1
BTB BRANCH_INDIRECT_CALL	ACCESS:          0  HIT:          0  MISS:          0
BTB BRANCH_RETURN	ACCESS:          5  HIT:          4  MISS:          1
BTB BRANCH_OTHER ACCESS:          0  HIT:          0  MISS:          0

L2C TOTAL     ACCESS:    5982223  HIT:    1135468  MISS:    4846755  HIT %:    18.9807  MISS %:    81.0193   MPKI: 193.87
L2C LOAD      ACCESS:    1983883  HIT:     182570  MISS:    1801313  HIT %:    9.20266  MISS %:    90.7973   MPKI: 72.0525
L2C DATA LOAD MPKI: 72.0525
L2C INSTRUCTION LOAD MPKI: 0
L2C RFO       ACCESS:      10826  HIT:         93  MISS:      10733  HIT %:   0.859043  MISS %:     99.141   MPKI: 0.42932
L2C PREFETCH  ACCESS:    3214321  HIT:     250799  MISS:    2963522  HIT %:    7.80255  MISS %:    92.1975   MPKI: 118.541
AGUS PREFETCH L1 MISS: 0
L2C DATA PREFETCH MPKI: 118.541
L2C INSTRUCTION PREFETCH MPKI: 0
L2C WRITEBACK ACCESS:     484161  HIT:     483306  MISS:        855  HIT %:    99.8234  MISS %:   0.176594   MPKI: 0.0342
L2C LOAD TRANSLATION ACCESS:     289032  HIT:     218700  MISS:      70332  HIT %:    75.6664  MISS %:    24.3336   MPKI: 2.81328
L2C PREFETCH  REQUESTED:          0  ISSUED:          0  USEFUL:      40898  USELESS:    2921093
L2C USEFUL LOAD PREFETCHES:      40898 PREFETCH ISSUED TO LOWER LEVEL:    2963521  ACCURACY: 1.38005
L2C TIMELY PREFETCHES:      40898 LATE PREFETCHES: 0 DROPPED PREFETCHES: 0
L2C PREFETCHES SAME FILL-ORIGIN LEVEL: 0 DIFFERENT FILL-ORIGIN LEVEL: 0
L2C AVERAGE MISS LATENCY: 162.723 cycles
L2C RQ	ACCESS:    2283742	FORWARD:          0	MERGED:          0	TO_CACHE:    2283741
L2C WQ	ACCESS:     484161	FORWARD:          2	MERGED:          0	TO_CACHE:     484161
L2C PQ	ACCESS:    3214320	FORWARD:          0	MERGED:          0	TO_CACHE:    3214319

L2C Instructions Evicting Data 0
L2C Translations Evicting Data 68923
L2C Data Evicting Data 4706731
L2C Instructions Evicting Instructions 0
L2C Translations Evicting Instructions 0
L2C Data Evicting Instructions 0
L2C Instructions Evicting Translations 0
L2C Translations Evicting Translations 1409
L2C Data Evicting Translations 68837
L2C Dense regions hint from L2: 0
PSCL5 TOTAL     ACCESS:     289018  HIT:     289018  MISS:          0  HIT %:        100  MISS %:          0   MPKI: 0
PSCL5 LOAD TRANSLATION ACCESS:     289018  HIT:     289018  MISS:          0  HIT %:        100  MISS %:          0   MPKI: 0
PSCL5 PREFETCH  REQUESTED:          0  ISSUED:          0  USEFUL:          0  USELESS:          0
PSCL5 USEFUL LOAD PREFETCHES:          0 PREFETCH ISSUED TO LOWER LEVEL:          0  ACCURACY: -nan
PSCL5 TIMELY PREFETCHES:          0 LATE PREFETCHES: 0 DROPPED PREFETCHES: 0
PSCL5 PREFETCHES SAME FILL-ORIGIN LEVEL: 0 DIFFERENT FILL-ORIGIN LEVEL: 0

PSCL4 TOTAL     ACCESS:     289018  HIT:     289018  MISS:          0  HIT %:        100  MISS %:          0   MPKI: 0
PSCL4 LOAD TRANSLATION ACCESS:     289018  HIT:     289018  MISS:          0  HIT %:        100  MISS %:          0   MPKI: 0
PSCL4 PREFETCH  REQUESTED:          0  ISSUED:          0  USEFUL:          0  USELESS:          0
PSCL4 USEFUL LOAD PREFETCHES:          0 PREFETCH ISSUED TO LOWER LEVEL:          0  ACCURACY: -nan
PSCL4 TIMELY PREFETCHES:          0 LATE PREFETCHES: 0 DROPPED PREFETCHES: 0
PSCL4 PREFETCHES SAME FILL-ORIGIN LEVEL: 0 DIFFERENT FILL-ORIGIN LEVEL: 0

PSCL3 TOTAL     ACCESS:     289018  HIT:     289018  MISS:          0  HIT %:        100  MISS %:          0   MPKI: 0
PSCL3 LOAD TRANSLATION ACCESS:     289018  HIT:     289018  MISS:          0  HIT %:        100  MISS %:          0   MPKI: 0
PSCL3 PREFETCH  REQUESTED:          0  ISSUED:          0  USEFUL:          0  USELESS:          0
PSCL3 USEFUL LOAD PREFETCHES:          0 PREFETCH ISSUED TO LOWER LEVEL:          0  ACCURACY: -nan
PSCL3 TIMELY PREFETCHES:          0 LATE PREFETCHES: 0 DROPPED PREFETCHES: 0
PSCL3 PREFETCHES SAME FILL-ORIGIN LEVEL: 0 DIFFERENT FILL-ORIGIN LEVEL: 0

PSCL2 TOTAL     ACCESS:     289018  HIT:     289004  MISS:         14  HIT %:    99.9952  MISS %: 0.00484399   MPKI: 0.00056
PSCL2 LOAD TRANSLATION ACCESS:     289018  HIT:     289004  MISS:         14  HIT %:    99.9952  MISS %: 0.00484399   MPKI: 0.00056
PSCL2 PREFETCH  REQUESTED:          0  ISSUED:          0  USEFUL:          0  USELESS:          0
PSCL2 USEFUL LOAD PREFETCHES:          0 PREFETCH ISSUED TO LOWER LEVEL:          0  ACCURACY: -nan
PSCL2 TIMELY PREFETCHES:          0 LATE PREFETCHES: 0 DROPPED PREFETCHES: 0
PSCL2 PREFETCHES SAME FILL-ORIGIN LEVEL: 0 DIFFERENT FILL-ORIGIN LEVEL: 0

LLC TOTAL     ACCESS:    5328082  HIT:    1951979  MISS:    3376103  HIT %:    36.6357  MISS %:    63.3643   MPKI: 135.044
LLC LOAD      ACCESS:    1801313  HIT:     659396  MISS:    1141917  HIT %:    36.6064  MISS %:    63.3936   MPKI: 45.6767
LLC RFO       ACCESS:      10733  HIT:        179  MISS:      10554  HIT %:    1.66775  MISS %:    98.3322   MPKI: 0.42216
LLC PREFETCH  ACCESS:    2963521  HIT:     745597  MISS:    2217924  HIT %:    25.1592  MISS %:    74.8408   MPKI: 88.717
AGUS PREFETCH L1 MISS: 0
LLC WRITEBACK ACCESS:     482183  HIT:     481674  MISS:        509  HIT %:    99.8944  MISS %:   0.105562   MPKI: 0.02036
LLC LOAD TRANSLATION ACCESS:      70332  HIT:      65133  MISS:       5199  HIT %:    92.6079  MISS %:    7.39208   MPKI: 0.20796
LLC PREFETCH  REQUESTED:          0  ISSUED:          0  USEFUL:     174368  USELESS:    2037223
LLC USEFUL LOAD PREFETCHES:     174368 PREFETCH ISSUED TO LOWER LEVEL:    2217924  ACCURACY: 7.86177
LLC TIMELY PREFETCHES:     174368 LATE PREFETCHES: 0 DROPPED PREFETCHES: 0
LLC PREFETCHES SAME FILL-ORIGIN LEVEL: 0 DIFFERENT FILL-ORIGIN LEVEL: 0
LLC AVERAGE MISS LATENCY: 190.471 cycles
LLC RQ	ACCESS:    1882378	FORWARD:          0	MERGED:          0	TO_CACHE:    1882378
LLC WQ	ACCESS:     482183	FORWARD:          0	MERGED:          0	TO_CACHE:     482183
LLC PQ	ACCESS:    2963521	FORWARD:          0	MERGED:          0	TO_CACHE:    2963521

LLC Dense regions hint to LLC: 0

RAW hits: 31012
Loads Generated: 6110804
Loads sent to L1D: 6079791
Stores Generated: 964820
Stores sent to L1D: 964822
Major fault: 0 Minor fault: 10197
Allocated PAGES: 10197
CPU 0 L1D nextline prefetcher final stats
 Action = 23 : 460756
 Action = 30 : 435117
 Action = 16 : 522870
 Action = 11 : 603987
 Action = 10 : 612563
 Action = 22 : 464970
 Action = 5 : 728343
 Action = 4 : 768203
 Action = 32 : 417199
 Action = -3 : 786361
 Action = 12 : 615259
 Action = -6 : 708023
 Action = 3 : 770869
 Action = 1 : 827774
 Action = -1 : 854037
 Action = 0 : 8508

DRAM Statistics
 CHANNEL 0
 RQ ROW_BUFFER_HIT:    1024606  ROW_BUFFER_MISS:    2350611
 DBUS_CONGESTED:       2209
 WQ ROW_BUFFER_HIT:     257518  ROW_BUFFER_MISS:     206221  FULL:          0

 AVG_CONGESTED_CYCLE: 4
 All warmup complete: 2
Channel 0 Bank busy for read cycles: 0
Channel 0 Bank busy for write cycles: 0
Channel 0
Rank 0
0banks busy for read cycles: 478574
0banks busy for write cycles: 847
1banks busy for read cycles: 29564262
1banks busy for write cycles: 522389
2banks busy for read cycles: 24288261
2banks busy for write cycles: 782922
3banks busy for read cycles: 23129947
3banks busy for write cycles: 1255815
4banks busy for read cycles: 20001231
4banks busy for write cycles: 1974745
5banks busy for read cycles: 15189972
5banks busy for write cycles: 3173614
6banks busy for read cycles: 9796141
6banks busy for write cycles: 5050686
7banks busy for read cycles: 4656603
7banks busy for write cycles: 8177237
8banks busy for read cycles: 1131495
8banks busy for write cycles: 11615683

CPU 0 Branch Prediction Accuracy: 89.7017% MPKI: 21.9875 Average ROB Occupancy at Mispredict: 31.2945
Branch types
NOT_BRANCH: 19662039 78.6481%
BRANCH_DIRECT_JUMP: 92556 0.370224%
BRANCH_INDIRECT: 0 0%
BRANCH_CONDITIONAL: 5245069 20.9803%
BRANCH_DIRECT_CALL: 5 2e-05%
BRANCH_INDIRECT_CALL: 0 0%
BRANCH_RETURN: 5 2e-05%
BRANCH_OTHER: 0 0%

DRAM PAGES: 1048576
Allocated PAGES: 10197
