
*** ChampSim Multicore Out-of-Order Simulator ***

Warmup Instructions: 25000000
Simulation Instructions: 25000000
Number of CPUs: 1
LLC sets: 2048
LLC ways: 16
Off-chip DRAM Size: 4096 MB Channels: 1 Width: 64-bit Data Rate: 6400 MT/s
CPU 0 runs ../traces/bc-5.trace.gz
.gz
CPU 0 Bimodal branch predictor
BTB has LRU replacement policy
ITLB has LRU replacement policy
DTLB has LRU replacement policy
STLB has LRU replacement policy
L1I has LRU replacement policy
CPU 0 L1D - Pythia Preftecher 
L1D has LRU replacement policy
L2C has LRU replacement policy
LLC has LRU replacement policy
Heartbeat CPU 0 instructions: 10000002 cycles: 3542634 heartbeat IPC: 2.82276 cumulative IPC: 2.82276 (Simulation time: 0 hr 0 min 55 sec) 
Heartbeat CPU 0 instructions: 20000001 cycles: 6590948 heartbeat IPC: 3.2805 cumulative IPC: 3.03447 (Simulation time: 0 hr 1 min 57 sec) 

Warmup complete CPU 0 instructions: 25000003 cycles: 8112872 (Simulation time: 0 hr 2 min 29 sec) 

Heartbeat CPU 0 instructions: 30000000 cycles: 34722583 heartbeat IPC: 0.355472 cumulative IPC: 0.187901 (Simulation time: 0 hr 3 min 12 sec) 
Heartbeat CPU 0 instructions: 40000003 cycles: 83934149 heartbeat IPC: 0.203204 cumulative IPC: 0.197834 (Simulation time: 0 hr 4 min 36 sec) 
Heartbeat CPU 0 instructions: 50000002 cycles: 136047851 heartbeat IPC: 0.191888 cumulative IPC: 0.195412 (Simulation time: 0 hr 6 min 2 sec) 
Finished CPU 0 instructions: 25000003 cycles: 127934980 cumulative IPC: 0.195412 (Simulation time: 0 hr 6 min 2 sec) 

ChampSim completed all CPUs

Region of Interest Statistics

CPU 0 cumulative IPC: 0.195412 instructions: 25000003 cycles: 127934980
ITLB TOTAL     ACCESS:    2312747  HIT:    2312747  MISS:          0  HIT %:        100  MISS %:          0   MPKI: 0
ITLB LOAD TRANSLATION ACCESS:    2312747  HIT:    2312747  MISS:          0  HIT %:        100  MISS %:          0   MPKI: 0
ITLB PREFETCH  REQUESTED:          0  ISSUED:          0  USEFUL:          0  USELESS:          0
ITLB USEFUL LOAD PREFETCHES:          0 PREFETCH ISSUED TO LOWER LEVEL:          0  ACCURACY: -nan
ITLB TIMELY PREFETCHES:          0 LATE PREFETCHES: 0 DROPPED PREFETCHES: 0
ITLB PREFETCHES SAME FILL-ORIGIN LEVEL: 0 DIFFERENT FILL-ORIGIN LEVEL: 0
ITLB AVERAGE MISS LATENCY: -nan cycles
ITLB RQ	ACCESS:    2423696	FORWARD:          0	MERGED:     110950	TO_CACHE:    2312746

DTLB TOTAL     ACCESS:    7108930  HIT:    6524411  MISS:     584519  HIT %:    91.7777  MISS %:    8.22232   MPKI: 23.3808
DTLB LOAD TRANSLATION ACCESS:    7108930  HIT:    6524411  MISS:     584519  HIT %:    91.7777  MISS %:    8.22232   MPKI: 23.3808
DTLB PREFETCH  REQUESTED:          0  ISSUED:          0  USEFUL:          0  USELESS:          0
DTLB USEFUL LOAD PREFETCHES:          0 PREFETCH ISSUED TO LOWER LEVEL:          0  ACCURACY: -nan
DTLB TIMELY PREFETCHES:          0 LATE PREFETCHES: 0 DROPPED PREFETCHES: 0
DTLB PREFETCHES SAME FILL-ORIGIN LEVEL: 0 DIFFERENT FILL-ORIGIN LEVEL: 0
DTLB AVERAGE MISS LATENCY: 34.2594 cycles
DTLB RQ	ACCESS:    7527511	FORWARD:          0	MERGED:     283251	TO_CACHE:    7244260

STLB TOTAL     ACCESS:    5046563  HIT:    4685817  MISS:     360746  HIT %:    92.8516  MISS %:    7.14835   MPKI: 14.4298
STLB LOAD TRANSLATION ACCESS:     584519  HIT:     223774  MISS:     360745  HIT %:    38.2834  MISS %:    61.7166   MPKI: 14.4298
STLB TRANSLATION FROM L1D PREFETCHER ACCESS:    4462044  HIT:    4462043  MISS:          1  HIT %:        100  MISS %: 2.24113e-05   MPKI: 4e-05
STLB PREFETCH  REQUESTED:          0  ISSUED:          0  USEFUL:          1  USELESS:          0
STLB USEFUL LOAD PREFETCHES:          1 PREFETCH ISSUED TO LOWER LEVEL:          0  ACCURACY: inf
STLB TIMELY PREFETCHES:          1 LATE PREFETCHES: 0 DROPPED PREFETCHES: 0
STLB PREFETCHES SAME FILL-ORIGIN LEVEL: 0 DIFFERENT FILL-ORIGIN LEVEL: 0
STLB AVERAGE MISS LATENCY: 40.765 cycles
STLB RQ	ACCESS:   14093196	FORWARD:          0	MERGED:    9046633	TO_CACHE:    5046563

STLB Hit, L1D data hit: 0
STLB Hit, L2C data hit: 0
STLB Hit, LLC data hit: 0
STLB Hit, LLC data miss: 0
STLB STLB hints to L2: 0
L1D TOTAL     ACCESS:   19183276  HIT:   14860339  MISS:    4322937  HIT %:    77.4651  MISS %:    22.5349   MPKI: 172.917
L1D LOAD      ACCESS:    5642335  HIT:    3890902  MISS:    1751433  HIT %:    68.9591  MISS %:    31.0409   MPKI: 70.0573
L1D RFO       ACCESS:    1824645  HIT:    1813896  MISS:      10749  HIT %:    99.4109  MISS %:   0.589101   MPKI: 0.42996
L1D PREFETCH  ACCESS:   11716296  HIT:    9155541  MISS:    2560755  HIT %:    78.1436  MISS %:    21.8564   MPKI: 102.43
AGUS PREFETCH L1 MISS: 0
L1D PREFETCH  REQUESTED:   28142341  ISSUED:   27559414  USEFUL:     194617  USELESS:    2366006
L1D USEFUL LOAD PREFETCHES:     194617 PREFETCH ISSUED TO LOWER LEVEL:    2617213  ACCURACY: 7.43604
L1D TIMELY PREFETCHES:     194617 LATE PREFETCHES: 56456 DROPPED PREFETCHES: 0
L1D PREFETCHES SAME FILL-ORIGIN LEVEL: 2617213 DIFFERENT FILL-ORIGIN LEVEL: 0
L1D AVERAGE MISS LATENCY: 236.137 cycles
L1D RQ	ACCESS:    7447485	FORWARD:          0	MERGED:    1691663	TO_CACHE:    5687445
L1D WQ	ACCESS:    2061636	FORWARD:      68583	MERGED:     221570	TO_CACHE:    1840066
L1D PQ	ACCESS:   14050737	FORWARD:          0	MERGED:     541854	TO_CACHE:   13508677

L1D UNIQUE REGIONS ACCESSED: 0
L1D REGIONS CONFLICTS: 0
L1D Cross Page Prefetch Requests: 0
L1D Same Page Prefetch Requests: 23383559
L1D ROI Sum of L1D PQ occupancy: 294163627
L1D PREFETCHES PUSHED FROM L2C: 0
L1I TOTAL     ACCESS:    2423698  HIT:    2423698  MISS:          0  HIT %:        100  MISS %:          0   MPKI: 0
L1I LOAD      ACCESS:    2423698  HIT:    2423698  MISS:          0  HIT %:        100  MISS %:          0   MPKI: 0
L1I PREFETCH  REQUESTED:          0  ISSUED:          0  USEFUL:          0  USELESS:          0
L1I USEFUL LOAD PREFETCHES:          0 PREFETCH ISSUED TO LOWER LEVEL:          0  ACCURACY: -nan
L1I TIMELY PREFETCHES:          0 LATE PREFETCHES: 0 DROPPED PREFETCHES: 0
L1I PREFETCHES SAME FILL-ORIGIN LEVEL: 0 DIFFERENT FILL-ORIGIN LEVEL: 0
L1I AVERAGE MISS LATENCY: -nan cycles
L1I RQ	ACCESS:    4589559	FORWARD:          0	MERGED:    2165863	TO_CACHE:    2423696

BTB TOTAL     ACCESS:    3375240  HIT:    3375226  MISS:         14  HIT %:    99.9996  MISS %: 0.000414785   MPKI: 0.00056
BTB BRANCH_DIRECT_JUMP	ACCESS:      90190  HIT:      90186  MISS:          4
BTB BRANCH_INDIRECT	ACCESS:          0  HIT:          0  MISS:          0
BTB BRANCH_CONDITIONAL	ACCESS:    3285040  HIT:    3285032  MISS:          8
BTB BRANCH_DIRECT_CALL	ACCESS:          5  HIT:          4  MISS:          1
BTB BRANCH_INDIRECT_CALL	ACCESS:          0  HIT:          0  MISS:          0
BTB BRANCH_RETURN	ACCESS:          5  HIT:          4  MISS:          1
BTB BRANCH_OTHER ACCESS:          0  HIT:          0  MISS:          0

L2C TOTAL     ACCESS:    5656777  HIT:    1442415  MISS:    4214362  HIT %:    25.4989  MISS %:    74.5011   MPKI: 168.574
L2C LOAD      ACCESS:    1694976  HIT:      55623  MISS:    1639353  HIT %:    3.28164  MISS %:    96.7184   MPKI: 65.5741
L2C DATA LOAD MPKI: 65.5741
L2C INSTRUCTION LOAD MPKI: 0
L2C RFO       ACCESS:      10749  HIT:         59  MISS:      10690  HIT %:   0.548888  MISS %:    99.4511   MPKI: 0.4276
L2C PREFETCH  ACCESS:    2617210  HIT:     105692  MISS:    2511518  HIT %:    4.03835  MISS %:    95.9617   MPKI: 100.461
AGUS PREFETCH L1 MISS: 0
L2C DATA PREFETCH MPKI: 100.461
L2C INSTRUCTION PREFETCH MPKI: 0
L2C WRITEBACK ACCESS:     973089  HIT:     972377  MISS:        712  HIT %:    99.9268  MISS %:  0.0731691   MPKI: 0.02848
L2C LOAD TRANSLATION ACCESS:     360752  HIT:     308664  MISS:      52088  HIT %:    85.5613  MISS %:    14.4387   MPKI: 2.08352
L2C TRANSLATION FROM L1D PREFETCHER ACCESS:          1  HIT:          0  MISS:          1  HIT %:          0  MISS %:        100   MPKI: 4e-05
L2C PREFETCH  REQUESTED:          0  ISSUED:          0  USEFUL:      12894  USELESS:    2497463
L2C USEFUL LOAD PREFETCHES:      12894 PREFETCH ISSUED TO LOWER LEVEL:    2511519  ACCURACY: 0.513394
L2C TIMELY PREFETCHES:      12894 LATE PREFETCHES: 0 DROPPED PREFETCHES: 0
L2C PREFETCHES SAME FILL-ORIGIN LEVEL: 0 DIFFERENT FILL-ORIGIN LEVEL: 0
L2C AVERAGE MISS LATENCY: 227.565 cycles
L2C RQ	ACCESS:    2066479	FORWARD:          0	MERGED:          0	TO_CACHE:    2066479
L2C WQ	ACCESS:     973089	FORWARD:          2	MERGED:          0	TO_CACHE:     973089
L2C PQ	ACCESS:    2617213	FORWARD:          0	MERGED:          0	TO_CACHE:    2617211

L2C Instructions Evicting Data 0
L2C Translations Evicting Data 51014
L2C Data Evicting Data 4110608
L2C Instructions Evicting Instructions 0
L2C Translations Evicting Instructions 0
L2C Data Evicting Instructions 0
L2C Instructions Evicting Translations 0
L2C Translations Evicting Translations 1075
L2C Data Evicting Translations 50953
L2C Dense regions hint from L2: 0
PSCL5 TOTAL     ACCESS:     360746  HIT:     360746  MISS:          0  HIT %:        100  MISS %:          0   MPKI: 0
PSCL5 LOAD TRANSLATION ACCESS:     360745  HIT:     360745  MISS:          0  HIT %:        100  MISS %:          0   MPKI: 0
PSCL5 TRANSLATION FROM L1D PREFETCHER ACCESS:          1  HIT:          1  MISS:          0  HIT %:        100  MISS %:          0   MPKI: 0
PSCL5 PREFETCH  REQUESTED:          0  ISSUED:          0  USEFUL:          0  USELESS:          0
PSCL5 USEFUL LOAD PREFETCHES:          0 PREFETCH ISSUED TO LOWER LEVEL:          0  ACCURACY: -nan
PSCL5 TIMELY PREFETCHES:          0 LATE PREFETCHES: 0 DROPPED PREFETCHES: 0
PSCL5 PREFETCHES SAME FILL-ORIGIN LEVEL: 0 DIFFERENT FILL-ORIGIN LEVEL: 0

PSCL4 TOTAL     ACCESS:     360746  HIT:     360746  MISS:          0  HIT %:        100  MISS %:          0   MPKI: 0
PSCL4 LOAD TRANSLATION ACCESS:     360745  HIT:     360745  MISS:          0  HIT %:        100  MISS %:          0   MPKI: 0
PSCL4 TRANSLATION FROM L1D PREFETCHER ACCESS:          1  HIT:          1  MISS:          0  HIT %:        100  MISS %:          0   MPKI: 0
PSCL4 PREFETCH  REQUESTED:          0  ISSUED:          0  USEFUL:          0  USELESS:          0
PSCL4 USEFUL LOAD PREFETCHES:          0 PREFETCH ISSUED TO LOWER LEVEL:          0  ACCURACY: -nan
PSCL4 TIMELY PREFETCHES:          0 LATE PREFETCHES: 0 DROPPED PREFETCHES: 0
PSCL4 PREFETCHES SAME FILL-ORIGIN LEVEL: 0 DIFFERENT FILL-ORIGIN LEVEL: 0

PSCL3 TOTAL     ACCESS:     360746  HIT:     360746  MISS:          0  HIT %:        100  MISS %:          0   MPKI: 0
PSCL3 LOAD TRANSLATION ACCESS:     360745  HIT:     360745  MISS:          0  HIT %:        100  MISS %:          0   MPKI: 0
PSCL3 TRANSLATION FROM L1D PREFETCHER ACCESS:          1  HIT:          1  MISS:          0  HIT %:        100  MISS %:          0   MPKI: 0
PSCL3 PREFETCH  REQUESTED:          0  ISSUED:          0  USEFUL:          0  USELESS:          0
PSCL3 USEFUL LOAD PREFETCHES:          0 PREFETCH ISSUED TO LOWER LEVEL:          0  ACCURACY: -nan
PSCL3 TIMELY PREFETCHES:          0 LATE PREFETCHES: 0 DROPPED PREFETCHES: 0
PSCL3 PREFETCHES SAME FILL-ORIGIN LEVEL: 0 DIFFERENT FILL-ORIGIN LEVEL: 0

PSCL2 TOTAL     ACCESS:     360746  HIT:     360726  MISS:         20  HIT %:    99.9945  MISS %: 0.00554407   MPKI: 0.0008
PSCL2 LOAD TRANSLATION ACCESS:     360745  HIT:     360725  MISS:         20  HIT %:    99.9945  MISS %: 0.00554408   MPKI: 0.0008
PSCL2 TRANSLATION FROM L1D PREFETCHER ACCESS:          1  HIT:          1  MISS:          0  HIT %:        100  MISS %:          0   MPKI: 0
PSCL2 PREFETCH  REQUESTED:          0  ISSUED:          0  USEFUL:          0  USELESS:          0
PSCL2 USEFUL LOAD PREFETCHES:          0 PREFETCH ISSUED TO LOWER LEVEL:          0  ACCURACY: -nan
PSCL2 TIMELY PREFETCHES:          0 LATE PREFETCHES: 0 DROPPED PREFETCHES: 0
PSCL2 PREFETCHES SAME FILL-ORIGIN LEVEL: 0 DIFFERENT FILL-ORIGIN LEVEL: 0

LLC TOTAL     ACCESS:    5172982  HIT:    1768618  MISS:    3404364  HIT %:    34.1895  MISS %:    65.8105   MPKI: 136.175
LLC LOAD      ACCESS:    1639352  HIT:     396042  MISS:    1243310  HIT %:    24.1584  MISS %:    75.8416   MPKI: 49.7324
LLC RFO       ACCESS:      10690  HIT:        187  MISS:      10503  HIT %:     1.7493  MISS %:    98.2507   MPKI: 0.42012
LLC PREFETCH  ACCESS:    2511516  HIT:     369906  MISS:    2141610  HIT %:    14.7284  MISS %:    85.2716   MPKI: 85.6644
AGUS PREFETCH L1 MISS: 0
LLC WRITEBACK ACCESS:     959335  HIT:     958613  MISS:        722  HIT %:    99.9247  MISS %:  0.0752605   MPKI: 0.02888
LLC LOAD TRANSLATION ACCESS:      52088  HIT:      43869  MISS:       8219  HIT %:    84.2209  MISS %:    15.7791   MPKI: 0.32876
LLC TRANSLATION FROM L1D PREFETCHER ACCESS:          1  HIT:          1  MISS:          0  HIT %:        100  MISS %:          0   MPKI: 0
LLC PREFETCH  REQUESTED:          0  ISSUED:          0  USEFUL:     105887  USELESS:    2029623
LLC USEFUL LOAD PREFETCHES:     105887 PREFETCH ISSUED TO LOWER LEVEL:    2141612  ACCURACY: 4.94427
LLC TIMELY PREFETCHES:     105887 LATE PREFETCHES: 0 DROPPED PREFETCHES: 0
LLC PREFETCHES SAME FILL-ORIGIN LEVEL: 0 DIFFERENT FILL-ORIGIN LEVEL: 0
LLC AVERAGE MISS LATENCY: 244.526 cycles
LLC RQ	ACCESS:    1702133	FORWARD:          0	MERGED:          0	TO_CACHE:    1702132
LLC WQ	ACCESS:     959335	FORWARD:          3	MERGED:          0	TO_CACHE:     959335
LLC PQ	ACCESS:    2511519	FORWARD:          0	MERGED:          0	TO_CACHE:    2511517

LLC Dense regions hint to LLC: 0

RAW hits: 656262
Loads Generated: 8103747
Loads sent to L1D: 7447485
Stores Generated: 2061642
Stores sent to L1D: 2061636
Major fault: 0 Minor fault: 8115
Allocated PAGES: 8115
CPU 0 L1D nextline prefetcher final stats
 Action = 30 : 509960
 Action = 23 : 586100
 Action = 16 : 600568
 Action = 11 : 652827
 Action = 10 : 677720
 Action = 22 : 587544
 Action = 5 : 756199
 Action = 4 : 762463
 Action = 32 : 514791
 Action = -3 : 777081
 Action = 12 : 667500
 Action = -6 : 636886
 Action = 3 : 834391
 Action = 1 : 814888
 Action = -1 : 835160
 Action = 0 : 11644

DRAM Statistics
 CHANNEL 0
 RQ ROW_BUFFER_HIT:    1149036  ROW_BUFFER_MISS:    2253912
 DBUS_CONGESTED:        269
 WQ ROW_BUFFER_HIT:     188476  ROW_BUFFER_MISS:     644924  FULL:          0

 AVG_CONGESTED_CYCLE: 5
 All warmup complete: 2
Channel 0 Bank busy for read cycles: 0
Channel 0 Bank busy for write cycles: 0
Channel 0
Rank 0
0banks busy for read cycles: 205528
0banks busy for write cycles: 7
1banks busy for read cycles: 14670506
1banks busy for write cycles: 185240
2banks busy for read cycles: 14208689
2banks busy for write cycles: 185604
3banks busy for read cycles: 14286585
3banks busy for write cycles: 184782
4banks busy for read cycles: 13898873
4banks busy for write cycles: 186007
5banks busy for read cycles: 14258909
5banks busy for write cycles: 196246
6banks busy for read cycles: 13765175
6banks busy for write cycles: 379629
7banks busy for read cycles: 10552130
7banks busy for write cycles: 3289280
8banks busy for read cycles: 4229807
8banks busy for write cycles: 23251984

CPU 0 Branch Prediction Accuracy: 92.5033% MPKI: 10.167 Average ROB Occupancy at Mispredict: 83.413
Branch types
NOT_BRANCH: 21609263 86.437%
BRANCH_DIRECT_JUMP: 90190 0.36076%
BRANCH_INDIRECT: 0 0%
BRANCH_CONDITIONAL: 3300282 13.2011%
BRANCH_DIRECT_CALL: 5 2e-05%
BRANCH_INDIRECT_CALL: 0 0%
BRANCH_RETURN: 5 2e-05%
BRANCH_OTHER: 0 0%

DRAM PAGES: 1048576
Allocated PAGES: 8115
