
*** ChampSim Multicore Out-of-Order Simulator ***

Warmup Instructions: 25000000
Simulation Instructions: 25000000
Number of CPUs: 1
LLC sets: 2048
LLC ways: 16
Off-chip DRAM Size: 4096 MB Channels: 1 Width: 64-bit Data Rate: 6400 MT/s
CPU 0 runs ../traces/bc-5.trace.gz
.gz
CPU 0 Bimodal branch predictor
BTB has LRU replacement policy
ITLB has LRU replacement policy
DTLB has LRU replacement policy
STLB has LRU replacement policy
L1I has LRU replacement policy
L1D has LRU replacement policy
L2C has LRU replacement policy
LLC has LRU replacement policy
Heartbeat CPU 0 instructions: 10000002 cycles: 3533863 heartbeat IPC: 2.82977 cumulative IPC: 2.82977 (Simulation time: 0 hr 0 min 14 sec) 
Heartbeat CPU 0 instructions: 20000001 cycles: 6576065 heartbeat IPC: 3.28709 cumulative IPC: 3.04133 (Simulation time: 0 hr 0 min 27 sec) 

Warmup complete CPU 0 instructions: 25000003 cycles: 8096129 (Simulation time: 0 hr 0 min 34 sec) 

Heartbeat CPU 0 instructions: 30000000 cycles: 31218321 heartbeat IPC: 0.405807 cumulative IPC: 0.216242 (Simulation time: 0 hr 0 min 46 sec) 
Heartbeat CPU 0 instructions: 40000003 cycles: 76211409 heartbeat IPC: 0.222256 cumulative IPC: 0.220215 (Simulation time: 0 hr 1 min 11 sec) 
Heartbeat CPU 0 instructions: 50000002 cycles: 119675476 heartbeat IPC: 0.230075 cumulative IPC: 0.224056 (Simulation time: 0 hr 1 min 35 sec) 
Finished CPU 0 instructions: 25000003 cycles: 111579348 cumulative IPC: 0.224056 (Simulation time: 0 hr 1 min 35 sec) 

ChampSim completed all CPUs

Region of Interest Statistics

CPU 0 cumulative IPC: 0.224056 instructions: 25000003 cycles: 111579348
ITLB TOTAL     ACCESS:    2312984  HIT:    2312984  MISS:          0  HIT %:        100  MISS %:          0   MPKI: 0
ITLB LOAD TRANSLATION ACCESS:    2312984  HIT:    2312984  MISS:          0  HIT %:        100  MISS %:          0   MPKI: 0
ITLB PREFETCH  REQUESTED:          0  ISSUED:          0  USEFUL:          0  USELESS:          0
ITLB USEFUL LOAD PREFETCHES:          0 PREFETCH ISSUED TO LOWER LEVEL:          0  ACCURACY: -nan
ITLB TIMELY PREFETCHES:          0 LATE PREFETCHES: 0 DROPPED PREFETCHES: 0
ITLB PREFETCHES SAME FILL-ORIGIN LEVEL: 0 DIFFERENT FILL-ORIGIN LEVEL: 0
ITLB AVERAGE MISS LATENCY: -nan cycles
ITLB RQ	ACCESS:    2424028	FORWARD:          0	MERGED:     111045	TO_CACHE:    2312983

DTLB TOTAL     ACCESS:    7161289  HIT:    6576869  MISS:     584420  HIT %:    91.8392  MISS %:    8.16082   MPKI: 23.3768
DTLB LOAD TRANSLATION ACCESS:    7161289  HIT:    6576869  MISS:     584420  HIT %:    91.8392  MISS %:    8.16082   MPKI: 23.3768
DTLB PREFETCH  REQUESTED:          0  ISSUED:          0  USEFUL:          0  USELESS:          0
DTLB USEFUL LOAD PREFETCHES:          0 PREFETCH ISSUED TO LOWER LEVEL:          0  ACCURACY: -nan
DTLB TIMELY PREFETCHES:          0 LATE PREFETCHES: 0 DROPPED PREFETCHES: 0
DTLB PREFETCHES SAME FILL-ORIGIN LEVEL: 0 DIFFERENT FILL-ORIGIN LEVEL: 0
DTLB AVERAGE MISS LATENCY: 27.2894 cycles
DTLB RQ	ACCESS:    7615374	FORWARD:          0	MERGED:     343378	TO_CACHE:    7271996

STLB TOTAL     ACCESS:     584420  HIT:     224841  MISS:     359579  HIT %:    38.4725  MISS %:    61.5275   MPKI: 14.3832
STLB LOAD TRANSLATION ACCESS:     584420  HIT:     224841  MISS:     359579  HIT %:    38.4725  MISS %:    61.5275   MPKI: 14.3832
STLB PREFETCH  REQUESTED:          0  ISSUED:          0  USEFUL:          0  USELESS:          0
STLB USEFUL LOAD PREFETCHES:          0 PREFETCH ISSUED TO LOWER LEVEL:          0  ACCURACY: -nan
STLB TIMELY PREFETCHES:          0 LATE PREFETCHES: 0 DROPPED PREFETCHES: 0
STLB PREFETCHES SAME FILL-ORIGIN LEVEL: 0 DIFFERENT FILL-ORIGIN LEVEL: 0
STLB AVERAGE MISS LATENCY: 29.5221 cycles
STLB RQ	ACCESS:     584420	FORWARD:          0	MERGED:          0	TO_CACHE:     584420

STLB Hit, L1D data hit: 0
STLB Hit, L2C data hit: 0
STLB Hit, LLC data hit: 0
STLB Hit, LLC data miss: 0
STLB STLB hints to L2: 0
L1D TOTAL     ACCESS:    7463924  HIT:    5508385  MISS:    1955539  HIT %:    73.8001  MISS %:    26.1999   MPKI: 78.2216
L1D LOAD      ACCESS:    5611863  HIT:    3667059  MISS:    1944804  HIT %:    65.3448  MISS %:    34.6552   MPKI: 77.7922
L1D RFO       ACCESS:    1852061  HIT:    1841326  MISS:      10735  HIT %:    99.4204  MISS %:   0.579625   MPKI: 0.4294
L1D PREFETCH  REQUESTED:          0  ISSUED:          0  USEFUL:          0  USELESS:          0
L1D USEFUL LOAD PREFETCHES:          0 PREFETCH ISSUED TO LOWER LEVEL:          0  ACCURACY: -nan
L1D TIMELY PREFETCHES:          0 LATE PREFETCHES: 0 DROPPED PREFETCHES: 0
L1D PREFETCHES SAME FILL-ORIGIN LEVEL: 0 DIFFERENT FILL-ORIGIN LEVEL: 0
L1D AVERAGE MISS LATENCY: 155.92 cycles
L1D RQ	ACCESS:    7476231	FORWARD:          0	MERGED:    1654072	TO_CACHE:    5748376
L1D WQ	ACCESS:    2061636	FORWARD:      73783	MERGED:     194638	TO_CACHE:    1866998

L1D UNIQUE REGIONS ACCESSED: 0
L1D REGIONS CONFLICTS: 0
L1D Cross Page Prefetch Requests: 0
L1D Same Page Prefetch Requests: 0
L1D ROI Sum of L1D PQ occupancy: 0
L1D PREFETCHES PUSHED FROM L2C: 0
L1I TOTAL     ACCESS:    2424030  HIT:    2424030  MISS:          0  HIT %:        100  MISS %:          0   MPKI: 0
L1I LOAD      ACCESS:    2424030  HIT:    2424030  MISS:          0  HIT %:        100  MISS %:          0   MPKI: 0
L1I PREFETCH  REQUESTED:          0  ISSUED:          0  USEFUL:          0  USELESS:          0
L1I USEFUL LOAD PREFETCHES:          0 PREFETCH ISSUED TO LOWER LEVEL:          0  ACCURACY: -nan
L1I TIMELY PREFETCHES:          0 LATE PREFETCHES: 0 DROPPED PREFETCHES: 0
L1I PREFETCHES SAME FILL-ORIGIN LEVEL: 0 DIFFERENT FILL-ORIGIN LEVEL: 0
L1I AVERAGE MISS LATENCY: -nan cycles
L1I RQ	ACCESS:    4588729	FORWARD:          0	MERGED:    2164701	TO_CACHE:    2424028

BTB TOTAL     ACCESS:    3375240  HIT:    3375226  MISS:         14  HIT %:    99.9996  MISS %: 0.000414785   MPKI: 0.00056
BTB BRANCH_DIRECT_JUMP	ACCESS:      90190  HIT:      90186  MISS:          4
BTB BRANCH_INDIRECT	ACCESS:          0  HIT:          0  MISS:          0
BTB BRANCH_CONDITIONAL	ACCESS:    3285040  HIT:    3285032  MISS:          8
BTB BRANCH_DIRECT_CALL	ACCESS:          5  HIT:          4  MISS:          1
BTB BRANCH_INDIRECT_CALL	ACCESS:          0  HIT:          0  MISS:          0
BTB BRANCH_RETURN	ACCESS:          5  HIT:          4  MISS:          1
BTB BRANCH_OTHER ACCESS:          0  HIT:          0  MISS:          0

L2C TOTAL     ACCESS:    3287657  HIT:    1459872  MISS:    1827785  HIT %:    44.4046  MISS %:    55.5954   MPKI: 73.1114
L2C LOAD      ACCESS:    1944803  HIT:     150927  MISS:    1793876  HIT %:    7.76053  MISS %:    92.2395   MPKI: 71.755
L2C DATA LOAD MPKI: 71.755
L2C INSTRUCTION LOAD MPKI: 0
L2C RFO       ACCESS:      10735  HIT:         85  MISS:      10650  HIT %:   0.791803  MISS %:    99.2082   MPKI: 0.426
L2C WRITEBACK ACCESS:     972532  HIT:     972522  MISS:         10  HIT %:     99.999  MISS %: 0.00102824   MPKI: 0.0004
L2C LOAD TRANSLATION ACCESS:     359587  HIT:     336338  MISS:      23249  HIT %:    93.5345  MISS %:    6.46547   MPKI: 0.92996
L2C PREFETCH  REQUESTED:          0  ISSUED:          0  USEFUL:          0  USELESS:          0
L2C USEFUL LOAD PREFETCHES:          0 PREFETCH ISSUED TO LOWER LEVEL:          0  ACCURACY: -nan
L2C TIMELY PREFETCHES:          0 LATE PREFETCHES: 0 DROPPED PREFETCHES: 0
L2C PREFETCHES SAME FILL-ORIGIN LEVEL: 0 DIFFERENT FILL-ORIGIN LEVEL: 0
L2C AVERAGE MISS LATENCY: 151.294 cycles
L2C RQ	ACCESS:    2315127	FORWARD:          0	MERGED:          0	TO_CACHE:    2315126
L2C WQ	ACCESS:     972532	FORWARD:          1	MERGED:          0	TO_CACHE:     972532

L2C Instructions Evicting Data 0
L2C Translations Evicting Data 22342
L2C Data Evicting Data 1782303
L2C Instructions Evicting Instructions 0
L2C Translations Evicting Instructions 0
L2C Data Evicting Instructions 0
L2C Instructions Evicting Translations 0
L2C Translations Evicting Translations 907
L2C Data Evicting Translations 22223
L2C Dense regions hint from L2: 0
PSCL5 TOTAL     ACCESS:     359579  HIT:     359579  MISS:          0  HIT %:        100  MISS %:          0   MPKI: 0
PSCL5 LOAD TRANSLATION ACCESS:     359579  HIT:     359579  MISS:          0  HIT %:        100  MISS %:          0   MPKI: 0
PSCL5 PREFETCH  REQUESTED:          0  ISSUED:          0  USEFUL:          0  USELESS:          0
PSCL5 USEFUL LOAD PREFETCHES:          0 PREFETCH ISSUED TO LOWER LEVEL:          0  ACCURACY: -nan
PSCL5 TIMELY PREFETCHES:          0 LATE PREFETCHES: 0 DROPPED PREFETCHES: 0
PSCL5 PREFETCHES SAME FILL-ORIGIN LEVEL: 0 DIFFERENT FILL-ORIGIN LEVEL: 0

PSCL4 TOTAL     ACCESS:     359579  HIT:     359579  MISS:          0  HIT %:        100  MISS %:          0   MPKI: 0
PSCL4 LOAD TRANSLATION ACCESS:     359579  HIT:     359579  MISS:          0  HIT %:        100  MISS %:          0   MPKI: 0
PSCL4 PREFETCH  REQUESTED:          0  ISSUED:          0  USEFUL:          0  USELESS:          0
PSCL4 USEFUL LOAD PREFETCHES:          0 PREFETCH ISSUED TO LOWER LEVEL:          0  ACCURACY: -nan
PSCL4 TIMELY PREFETCHES:          0 LATE PREFETCHES: 0 DROPPED PREFETCHES: 0
PSCL4 PREFETCHES SAME FILL-ORIGIN LEVEL: 0 DIFFERENT FILL-ORIGIN LEVEL: 0

PSCL3 TOTAL     ACCESS:     359579  HIT:     359579  MISS:          0  HIT %:        100  MISS %:          0   MPKI: 0
PSCL3 LOAD TRANSLATION ACCESS:     359579  HIT:     359579  MISS:          0  HIT %:        100  MISS %:          0   MPKI: 0
PSCL3 PREFETCH  REQUESTED:          0  ISSUED:          0  USEFUL:          0  USELESS:          0
PSCL3 USEFUL LOAD PREFETCHES:          0 PREFETCH ISSUED TO LOWER LEVEL:          0  ACCURACY: -nan
PSCL3 TIMELY PREFETCHES:          0 LATE PREFETCHES: 0 DROPPED PREFETCHES: 0
PSCL3 PREFETCHES SAME FILL-ORIGIN LEVEL: 0 DIFFERENT FILL-ORIGIN LEVEL: 0

PSCL2 TOTAL     ACCESS:     359579  HIT:     359558  MISS:         21  HIT %:    99.9942  MISS %: 0.00584016   MPKI: 0.00084
PSCL2 LOAD TRANSLATION ACCESS:     359579  HIT:     359558  MISS:         21  HIT %:    99.9942  MISS %: 0.00584016   MPKI: 0.00084
PSCL2 PREFETCH  REQUESTED:          0  ISSUED:          0  USEFUL:          0  USELESS:          0
PSCL2 USEFUL LOAD PREFETCHES:          0 PREFETCH ISSUED TO LOWER LEVEL:          0  ACCURACY: -nan
PSCL2 TIMELY PREFETCHES:          0 LATE PREFETCHES: 0 DROPPED PREFETCHES: 0
PSCL2 PREFETCHES SAME FILL-ORIGIN LEVEL: 0 DIFFERENT FILL-ORIGIN LEVEL: 0

LLC TOTAL     ACCESS:    2745379  HIT:    1541425  MISS:    1203954  HIT %:    56.1462  MISS %:    43.8538   MPKI: 48.1582
LLC LOAD      ACCESS:    1793872  HIT:     603876  MISS:    1189996  HIT %:    33.6633  MISS %:    66.3367   MPKI: 47.5998
LLC RFO       ACCESS:      10650  HIT:        463  MISS:      10187  HIT %:    4.34742  MISS %:    95.6526   MPKI: 0.40748
LLC WRITEBACK ACCESS:     917608  HIT:     917529  MISS:         79  HIT %:    99.9914  MISS %: 0.00860934   MPKI: 0.00316
LLC LOAD TRANSLATION ACCESS:      23249  HIT:      19557  MISS:       3692  HIT %:    84.1197  MISS %:    15.8803   MPKI: 0.14768
LLC PREFETCH  REQUESTED:          0  ISSUED:          0  USEFUL:          0  USELESS:          0
LLC USEFUL LOAD PREFETCHES:          0 PREFETCH ISSUED TO LOWER LEVEL:          0  ACCURACY: -nan
LLC TIMELY PREFETCHES:          0 LATE PREFETCHES: 0 DROPPED PREFETCHES: 0
LLC PREFETCHES SAME FILL-ORIGIN LEVEL: 0 DIFFERENT FILL-ORIGIN LEVEL: 0
LLC AVERAGE MISS LATENCY: 184.089 cycles
LLC RQ	ACCESS:    1827776	FORWARD:          0	MERGED:          0	TO_CACHE:    1827772
LLC WQ	ACCESS:     917610	FORWARD:          4	MERGED:          0	TO_CACHE:     917610

LLC Dense regions hint to LLC: 0

RAW hits: 627516
Loads Generated: 8103747
Loads sent to L1D: 7476231
Stores Generated: 2061642
Stores sent to L1D: 2061636
Major fault: 0 Minor fault: 8115
Allocated PAGES: 8115

DRAM Statistics
 CHANNEL 0
 RQ ROW_BUFFER_HIT:     152167  ROW_BUFFER_MISS:    1051624
 DBUS_CONGESTED:        429
 WQ ROW_BUFFER_HIT:     391141  ROW_BUFFER_MISS:     258035  FULL:          0

 AVG_CONGESTED_CYCLE: 5
 All warmup complete: 2
Channel 0 Bank busy for read cycles: 0
Channel 0 Bank busy for write cycles: 0
Channel 0
Rank 0
0banks busy for read cycles: 1929307
0banks busy for write cycles: 15437
1banks busy for read cycles: 29833750
1banks busy for write cycles: 2956733
2banks busy for read cycles: 18427288
2banks busy for write cycles: 3700800
3banks busy for read cycles: 11643240
3banks busy for write cycles: 4208423
4banks busy for read cycles: 7154427
4banks busy for write cycles: 4458627
5banks busy for read cycles: 3951849
5banks busy for write cycles: 4750292
6banks busy for read cycles: 1745009
6banks busy for write cycles: 4916375
7banks busy for read cycles: 527722
7banks busy for write cycles: 5448261
8banks busy for read cycles: 171252
8banks busy for write cycles: 5740557

CPU 0 Branch Prediction Accuracy: 92.5033% MPKI: 10.167 Average ROB Occupancy at Mispredict: 78.6451
Branch types
NOT_BRANCH: 21609263 86.437%
BRANCH_DIRECT_JUMP: 90190 0.36076%
BRANCH_INDIRECT: 0 0%
BRANCH_CONDITIONAL: 3300282 13.2011%
BRANCH_DIRECT_CALL: 5 2e-05%
BRANCH_INDIRECT_CALL: 0 0%
BRANCH_RETURN: 5 2e-05%
BRANCH_OTHER: 0 0%

DRAM PAGES: 1048576
Allocated PAGES: 8115
