
*** ChampSim Multicore Out-of-Order Simulator ***

Warmup Instructions: 25000000
Simulation Instructions: 25000000
Number of CPUs: 1
LLC sets: 2048
LLC ways: 16
Off-chip DRAM Size: 4096 MB Channels: 1 Width: 64-bit Data Rate: 6400 MT/s
CPU 0 runs ../traces/bfs-3.trace.gz
.gz
CPU 0 Bimodal branch predictor
BTB has LRU replacement policy
ITLB has LRU replacement policy
DTLB has LRU replacement policy
STLB has LRU replacement policy
L1I has LRU replacement policy
L1D has LRU replacement policy
L2C has LRU replacement policy
LLC has LRU replacement policy
Heartbeat CPU 0 instructions: 10000002 cycles: 2954734 heartbeat IPC: 3.3844 cumulative IPC: 3.3844 (Simulation time: 0 hr 0 min 6 sec) 
Heartbeat CPU 0 instructions: 20000003 cycles: 5966548 heartbeat IPC: 3.32026 cumulative IPC: 3.35202 (Simulation time: 0 hr 0 min 13 sec) 

Warmup complete CPU 0 instructions: 25000002 cycles: 7467248 (Simulation time: 0 hr 0 min 16 sec) 

Heartbeat CPU 0 instructions: 30000001 cycles: 34731420 heartbeat IPC: 0.347646 cumulative IPC: 0.183391 (Simulation time: 0 hr 0 min 25 sec) 
Heartbeat CPU 0 instructions: 40000000 cycles: 89245185 heartbeat IPC: 0.18344 cumulative IPC: 0.183424 (Simulation time: 0 hr 0 min 41 sec) 
Heartbeat CPU 0 instructions: 50000000 cycles: 153959205 heartbeat IPC: 0.154526 cumulative IPC: 0.170658 (Simulation time: 0 hr 0 min 58 sec) 
Finished CPU 0 instructions: 25000000 cycles: 146491989 cumulative IPC: 0.170658 (Simulation time: 0 hr 0 min 58 sec) 

ChampSim completed all CPUs

Region of Interest Statistics

CPU 0 cumulative IPC: 0.170658 instructions: 25000000 cycles: 146491989
ITLB TOTAL     ACCESS:    3909007  HIT:    3909007  MISS:          0  HIT %:        100  MISS %:          0   MPKI: 0
ITLB LOAD TRANSLATION ACCESS:    3909007  HIT:    3909007  MISS:          0  HIT %:        100  MISS %:          0   MPKI: 0
ITLB PREFETCH  REQUESTED:          0  ISSUED:          0  USEFUL:          0  USELESS:          0
ITLB USEFUL LOAD PREFETCHES:          0 PREFETCH ISSUED TO LOWER LEVEL:          0  ACCURACY: -nan
ITLB TIMELY PREFETCHES:          0 LATE PREFETCHES: 0 DROPPED PREFETCHES: 0
ITLB PREFETCHES SAME FILL-ORIGIN LEVEL: 0 DIFFERENT FILL-ORIGIN LEVEL: 0
ITLB AVERAGE MISS LATENCY: -nan cycles
ITLB RQ	ACCESS:    5026940	FORWARD:          0	MERGED:    1117934	TO_CACHE:    3909006

DTLB TOTAL     ACCESS:    5503562  HIT:    5475835  MISS:      27727  HIT %:    99.4962  MISS %:   0.503801   MPKI: 1.10908
DTLB LOAD TRANSLATION ACCESS:    5503562  HIT:    5475835  MISS:      27727  HIT %:    99.4962  MISS %:   0.503801   MPKI: 1.10908
DTLB PREFETCH  REQUESTED:          0  ISSUED:          0  USEFUL:          0  USELESS:          0
DTLB USEFUL LOAD PREFETCHES:          0 PREFETCH ISSUED TO LOWER LEVEL:          0  ACCURACY: -nan
DTLB TIMELY PREFETCHES:          0 LATE PREFETCHES: 0 DROPPED PREFETCHES: 0
DTLB PREFETCHES SAME FILL-ORIGIN LEVEL: 0 DIFFERENT FILL-ORIGIN LEVEL: 0
DTLB AVERAGE MISS LATENCY: 100.593 cycles
DTLB RQ	ACCESS:    6093974	FORWARD:          0	MERGED:     589839	TO_CACHE:    5504135

STLB TOTAL     ACCESS:      27727  HIT:       2662  MISS:      25065  HIT %:    9.60075  MISS %:    90.3992   MPKI: 1.0026
STLB LOAD TRANSLATION ACCESS:      27727  HIT:       2662  MISS:      25065  HIT %:    9.60075  MISS %:    90.3992   MPKI: 1.0026
STLB PREFETCH  REQUESTED:          0  ISSUED:          0  USEFUL:          0  USELESS:          0
STLB USEFUL LOAD PREFETCHES:          0 PREFETCH ISSUED TO LOWER LEVEL:          0  ACCURACY: -nan
STLB TIMELY PREFETCHES:          0 LATE PREFETCHES: 0 DROPPED PREFETCHES: 0
STLB PREFETCHES SAME FILL-ORIGIN LEVEL: 0 DIFFERENT FILL-ORIGIN LEVEL: 0
STLB AVERAGE MISS LATENCY: 101.313 cycles
STLB RQ	ACCESS:      27727	FORWARD:          0	MERGED:          0	TO_CACHE:      27727

STLB Hit, L1D data hit: 0
STLB Hit, L2C data hit: 0
STLB Hit, LLC data hit: 0
STLB Hit, LLC data miss: 0
STLB STLB hints to L2: 0
L1D TOTAL     ACCESS:    5931155  HIT:    4862256  MISS:    1068899  HIT %:    81.9782  MISS %:    18.0218   MPKI: 42.756
L1D LOAD      ACCESS:    5280367  HIT:    4213263  MISS:    1067104  HIT %:    79.7911  MISS %:    20.2089   MPKI: 42.6842
L1D RFO       ACCESS:     650788  HIT:     648993  MISS:       1795  HIT %:    99.7242  MISS %:   0.275819   MPKI: 0.0718
L1D PREFETCH  REQUESTED:          0  ISSUED:          0  USEFUL:          0  USELESS:          0
L1D USEFUL LOAD PREFETCHES:          0 PREFETCH ISSUED TO LOWER LEVEL:          0  ACCURACY: -nan
L1D TIMELY PREFETCHES:          0 LATE PREFETCHES: 0 DROPPED PREFETCHES: 0
L1D PREFETCHES SAME FILL-ORIGIN LEVEL: 0 DIFFERENT FILL-ORIGIN LEVEL: 0
L1D AVERAGE MISS LATENCY: 85.581 cycles
L1D RQ	ACCESS:    6895264	FORWARD:          0	MERGED:    1457319	TO_CACHE:    5437809
L1D WQ	ACCESS:     658579	FORWARD:        136	MERGED:       2414	TO_CACHE:     656165

L1D UNIQUE REGIONS ACCESSED: 0
L1D REGIONS CONFLICTS: 0
L1D Cross Page Prefetch Requests: 0
L1D Same Page Prefetch Requests: 0
L1D ROI Sum of L1D PQ occupancy: 0
L1D PREFETCHES PUSHED FROM L2C: 0
L1I TOTAL     ACCESS:    5026939  HIT:    5026938  MISS:          1  HIT %:        100  MISS %: 1.98928e-05   MPKI: 4e-05
L1I LOAD      ACCESS:    5026939  HIT:    5026938  MISS:          1  HIT %:        100  MISS %: 1.98928e-05   MPKI: 4e-05
L1I PREFETCH  REQUESTED:          0  ISSUED:          0  USEFUL:          0  USELESS:          0
L1I USEFUL LOAD PREFETCHES:          0 PREFETCH ISSUED TO LOWER LEVEL:          0  ACCURACY: -nan
L1I TIMELY PREFETCHES:          0 LATE PREFETCHES: 0 DROPPED PREFETCHES: 0
L1I PREFETCHES SAME FILL-ORIGIN LEVEL: 0 DIFFERENT FILL-ORIGIN LEVEL: 0
L1I AVERAGE MISS LATENCY: 114 cycles
L1I RQ	ACCESS:    7117334	FORWARD:          0	MERGED:    2090394	TO_CACHE:    5026940

BTB TOTAL     ACCESS:    4270891  HIT:    4270865  MISS:         26  HIT %:    99.9994  MISS %: 0.000608772   MPKI: 0.00104
BTB BRANCH_DIRECT_JUMP	ACCESS:          9  HIT:          3  MISS:          6
BTB BRANCH_INDIRECT	ACCESS:          0  HIT:          0  MISS:          0
BTB BRANCH_CONDITIONAL	ACCESS:    4270872  HIT:    4270860  MISS:         12
BTB BRANCH_DIRECT_CALL	ACCESS:          5  HIT:          1  MISS:          4
BTB BRANCH_INDIRECT_CALL	ACCESS:          0  HIT:          0  MISS:          0
BTB BRANCH_RETURN	ACCESS:          5  HIT:          1  MISS:          4
BTB BRANCH_OTHER ACCESS:          0  HIT:          0  MISS:          0

L2C TOTAL     ACCESS:    1158922  HIT:     702165  MISS:     456757  HIT %:    60.5878  MISS %:    39.4122   MPKI: 18.2703
L2C LOAD      ACCESS:    1067105  HIT:     614409  MISS:     452696  HIT %:    57.5772  MISS %:    42.4228   MPKI: 18.1078
L2C DATA LOAD MPKI: 18.1078
L2C INSTRUCTION LOAD MPKI: 4e-05
L2C RFO       ACCESS:       1795  HIT:       1759  MISS:         36  HIT %:    97.9944  MISS %:    2.00557   MPKI: 0.00144
L2C WRITEBACK ACCESS:      64921  HIT:      64919  MISS:          2  HIT %:    99.9969  MISS %: 0.00308067   MPKI: 8e-05
L2C LOAD TRANSLATION ACCESS:      25101  HIT:      21078  MISS:       4023  HIT %:    83.9728  MISS %:    16.0272   MPKI: 0.16092
L2C PREFETCH  REQUESTED:          0  ISSUED:          0  USEFUL:          0  USELESS:          0
L2C USEFUL LOAD PREFETCHES:          0 PREFETCH ISSUED TO LOWER LEVEL:          0  ACCURACY: -nan
L2C TIMELY PREFETCHES:          0 LATE PREFETCHES: 0 DROPPED PREFETCHES: 0
L2C PREFETCHES SAME FILL-ORIGIN LEVEL: 0 DIFFERENT FILL-ORIGIN LEVEL: 0
L2C AVERAGE MISS LATENCY: 166.545 cycles
L2C RQ	ACCESS:    1094001	FORWARD:          0	MERGED:          0	TO_CACHE:    1094001
L2C WQ	ACCESS:      64921	FORWARD:          0	MERGED:          0	TO_CACHE:      64921

L2C Instructions Evicting Data 1
L2C Translations Evicting Data 3945
L2C Data Evicting Data 448813
L2C Instructions Evicting Instructions 0
L2C Translations Evicting Instructions 0
L2C Data Evicting Instructions 1
L2C Instructions Evicting Translations 0
L2C Translations Evicting Translations 78
L2C Data Evicting Translations 3917
L2C Dense regions hint from L2: 0
PSCL5 TOTAL     ACCESS:      25065  HIT:      25065  MISS:          0  HIT %:        100  MISS %:          0   MPKI: 0
PSCL5 LOAD TRANSLATION ACCESS:      25065  HIT:      25065  MISS:          0  HIT %:        100  MISS %:          0   MPKI: 0
PSCL5 PREFETCH  REQUESTED:          0  ISSUED:          0  USEFUL:          0  USELESS:          0
PSCL5 USEFUL LOAD PREFETCHES:          0 PREFETCH ISSUED TO LOWER LEVEL:          0  ACCURACY: -nan
PSCL5 TIMELY PREFETCHES:          0 LATE PREFETCHES: 0 DROPPED PREFETCHES: 0
PSCL5 PREFETCHES SAME FILL-ORIGIN LEVEL: 0 DIFFERENT FILL-ORIGIN LEVEL: 0

PSCL4 TOTAL     ACCESS:      25065  HIT:      25065  MISS:          0  HIT %:        100  MISS %:          0   MPKI: 0
PSCL4 LOAD TRANSLATION ACCESS:      25065  HIT:      25065  MISS:          0  HIT %:        100  MISS %:          0   MPKI: 0
PSCL4 PREFETCH  REQUESTED:          0  ISSUED:          0  USEFUL:          0  USELESS:          0
PSCL4 USEFUL LOAD PREFETCHES:          0 PREFETCH ISSUED TO LOWER LEVEL:          0  ACCURACY: -nan
PSCL4 TIMELY PREFETCHES:          0 LATE PREFETCHES: 0 DROPPED PREFETCHES: 0
PSCL4 PREFETCHES SAME FILL-ORIGIN LEVEL: 0 DIFFERENT FILL-ORIGIN LEVEL: 0

PSCL3 TOTAL     ACCESS:      25065  HIT:      25065  MISS:          0  HIT %:        100  MISS %:          0   MPKI: 0
PSCL3 LOAD TRANSLATION ACCESS:      25065  HIT:      25065  MISS:          0  HIT %:        100  MISS %:          0   MPKI: 0
PSCL3 PREFETCH  REQUESTED:          0  ISSUED:          0  USEFUL:          0  USELESS:          0
PSCL3 USEFUL LOAD PREFETCHES:          0 PREFETCH ISSUED TO LOWER LEVEL:          0  ACCURACY: -nan
PSCL3 TIMELY PREFETCHES:          0 LATE PREFETCHES: 0 DROPPED PREFETCHES: 0
PSCL3 PREFETCHES SAME FILL-ORIGIN LEVEL: 0 DIFFERENT FILL-ORIGIN LEVEL: 0

PSCL2 TOTAL     ACCESS:      25065  HIT:      24995  MISS:         70  HIT %:    99.7207  MISS %:   0.279274   MPKI: 0.0028
PSCL2 LOAD TRANSLATION ACCESS:      25065  HIT:      24995  MISS:         70  HIT %:    99.7207  MISS %:   0.279274   MPKI: 0.0028
PSCL2 PREFETCH  REQUESTED:          0  ISSUED:          0  USEFUL:          0  USELESS:          0
PSCL2 USEFUL LOAD PREFETCHES:          0 PREFETCH ISSUED TO LOWER LEVEL:          0  ACCURACY: -nan
PSCL2 TIMELY PREFETCHES:          0 LATE PREFETCHES: 0 DROPPED PREFETCHES: 0
PSCL2 PREFETCHES SAME FILL-ORIGIN LEVEL: 0 DIFFERENT FILL-ORIGIN LEVEL: 0

LLC TOTAL     ACCESS:     521363  HIT:      74282  MISS:     447081  HIT %:    14.2477  MISS %:    85.7523   MPKI: 17.8832
LLC LOAD      ACCESS:     452696  HIT:      11364  MISS:     441332  HIT %:    2.51029  MISS %:    97.4897   MPKI: 17.6533
LLC RFO       ACCESS:         36  HIT:         23  MISS:         13  HIT %:    63.8889  MISS %:    36.1111   MPKI: 0.00052
LLC WRITEBACK ACCESS:      64608  HIT:      62789  MISS:       1819  HIT %:    97.1846  MISS %:    2.81544   MPKI: 0.07276
LLC LOAD TRANSLATION ACCESS:       4023  HIT:        106  MISS:       3917  HIT %:    2.63485  MISS %:    97.3652   MPKI: 0.15668
LLC PREFETCH  REQUESTED:          0  ISSUED:          0  USEFUL:          0  USELESS:          0
LLC USEFUL LOAD PREFETCHES:          0 PREFETCH ISSUED TO LOWER LEVEL:          0  ACCURACY: -nan
LLC TIMELY PREFETCHES:          0 LATE PREFETCHES: 0 DROPPED PREFETCHES: 0
LLC PREFETCHES SAME FILL-ORIGIN LEVEL: 0 DIFFERENT FILL-ORIGIN LEVEL: 0
LLC AVERAGE MISS LATENCY: 139.478 cycles
LLC RQ	ACCESS:     456755	FORWARD:          0	MERGED:          0	TO_CACHE:     456755
LLC WQ	ACCESS:      64608	FORWARD:          0	MERGED:          0	TO_CACHE:      64608

LLC Dense regions hint to LLC: 0

RAW hits: 4212
Loads Generated: 6899480
Loads sent to L1D: 6895264
Stores Generated: 658579
Stores sent to L1D: 658579
Major fault: 0 Minor fault: 27089
Allocated PAGES: 27089

DRAM Statistics
 CHANNEL 0
 RQ ROW_BUFFER_HIT:     139076  ROW_BUFFER_MISS:     306186
 DBUS_CONGESTED:          6
 WQ ROW_BUFFER_HIT:      14143  ROW_BUFFER_MISS:      48733  FULL:          0

 AVG_CONGESTED_CYCLE: 4
 All warmup complete: 2
Channel 0 Bank busy for read cycles: 0
Channel 0 Bank busy for write cycles: 0
Channel 0
Rank 0
0banks busy for read cycles: 86909471
0banks busy for write cycles: 58002
1banks busy for read cycles: 45562349
1banks busy for write cycles: 9936823
2banks busy for read cycles: 3496205
2banks busy for write cycles: 409907
3banks busy for read cycles: 106089
3banks busy for write cycles: 10968
4banks busy for read cycles: 2176
4banks busy for write cycles: 0
5banks busy for read cycles: 0
5banks busy for write cycles: 0
6banks busy for read cycles: 0
6banks busy for write cycles: 0
7banks busy for read cycles: 0
7banks busy for write cycles: 0
8banks busy for read cycles: 0
8banks busy for write cycles: 0

CPU 0 Branch Prediction Accuracy: 80.0106% MPKI: 39.441 Average ROB Occupancy at Mispredict: 9.08401
Branch types
NOT_BRANCH: 20067267 80.2691%
BRANCH_DIRECT_JUMP: 9 3.6e-05%
BRANCH_INDIRECT: 0 0%
BRANCH_CONDITIONAL: 4932714 19.7309%
BRANCH_DIRECT_CALL: 5 2e-05%
BRANCH_INDIRECT_CALL: 0 0%
BRANCH_RETURN: 5 2e-05%
BRANCH_OTHER: 0 0%

DRAM PAGES: 1048576
Allocated PAGES: 27089
