
*** ChampSim Multicore Out-of-Order Simulator ***

Warmup Instructions: 25000000
Simulation Instructions: 25000000
Number of CPUs: 1
LLC sets: 2048
LLC ways: 16
Off-chip DRAM Size: 4096 MB Channels: 1 Width: 64-bit Data Rate: 6400 MT/s
CPU 0 runs ../traces/bfs-10.trace.gz
.gz
CPU 0 Bimodal branch predictor
BTB has LRU replacement policy
ITLB has LRU replacement policy
DTLB has LRU replacement policy
STLB has LRU replacement policy
L1I has LRU replacement policy
CPU 0 L1D - Pythia Preftecher 
L1D has LRU replacement policy
L2C has LRU replacement policy
LLC has LRU replacement policy
Heartbeat CPU 0 instructions: 10000000 cycles: 2953914 heartbeat IPC: 3.38534 cumulative IPC: 3.38534 (Simulation time: 0 hr 0 min 29 sec) 
Heartbeat CPU 0 instructions: 20000003 cycles: 5901146 heartbeat IPC: 3.39302 cumulative IPC: 3.38917 (Simulation time: 0 hr 1 min 27 sec) 

Warmup complete CPU 0 instructions: 25000003 cycles: 7368224 (Simulation time: 0 hr 1 min 56 sec) 

Heartbeat CPU 0 instructions: 30000003 cycles: 21888891 heartbeat IPC: 0.625479 cumulative IPC: 0.344337 (Simulation time: 0 hr 2 min 26 sec) 
Heartbeat CPU 0 instructions: 40000003 cycles: 51741192 heartbeat IPC: 0.334983 cumulative IPC: 0.338044 (Simulation time: 0 hr 3 min 27 sec) 
Heartbeat CPU 0 instructions: 50000000 cycles: 81502686 heartbeat IPC: 0.336005 cumulative IPC: 0.337225 (Simulation time: 0 hr 4 min 29 sec) 
Finished CPU 0 instructions: 25000000 cycles: 74134495 cumulative IPC: 0.337225 (Simulation time: 0 hr 4 min 29 sec) 

ChampSim completed all CPUs

Region of Interest Statistics

CPU 0 cumulative IPC: 0.337225 instructions: 25000000 cycles: 74134495
ITLB TOTAL     ACCESS:    4258223  HIT:    4258223  MISS:          0  HIT %:        100  MISS %:          0   MPKI: 0
ITLB LOAD TRANSLATION ACCESS:    4258223  HIT:    4258223  MISS:          0  HIT %:        100  MISS %:          0   MPKI: 0
ITLB PREFETCH  REQUESTED:          0  ISSUED:          0  USEFUL:          0  USELESS:          0
ITLB USEFUL LOAD PREFETCHES:          0 PREFETCH ISSUED TO LOWER LEVEL:          0  ACCURACY: -nan
ITLB TIMELY PREFETCHES:          0 LATE PREFETCHES: 0 DROPPED PREFETCHES: 0
ITLB PREFETCHES SAME FILL-ORIGIN LEVEL: 0 DIFFERENT FILL-ORIGIN LEVEL: 0
ITLB AVERAGE MISS LATENCY: -nan cycles
ITLB RQ	ACCESS:    5100180	FORWARD:          0	MERGED:     841958	TO_CACHE:    4258222

DTLB TOTAL     ACCESS:    4827613  HIT:    4810178  MISS:      17435  HIT %:    99.6388  MISS %:   0.361152   MPKI: 0.6974
DTLB LOAD TRANSLATION ACCESS:    4827613  HIT:    4810178  MISS:      17435  HIT %:    99.6388  MISS %:   0.361152   MPKI: 0.6974
DTLB PREFETCH  REQUESTED:          0  ISSUED:          0  USEFUL:          0  USELESS:          0
DTLB USEFUL LOAD PREFETCHES:          0 PREFETCH ISSUED TO LOWER LEVEL:          0  ACCURACY: -nan
DTLB TIMELY PREFETCHES:          0 LATE PREFETCHES: 0 DROPPED PREFETCHES: 0
DTLB PREFETCHES SAME FILL-ORIGIN LEVEL: 0 DIFFERENT FILL-ORIGIN LEVEL: 0
DTLB AVERAGE MISS LATENCY: 122.585 cycles
DTLB RQ	ACCESS:    5376880	FORWARD:          0	MERGED:     548373	TO_CACHE:    4828507

STLB TOTAL     ACCESS:    4317553  HIT:    4302456  MISS:      15097  HIT %:    99.6503  MISS %:   0.349666   MPKI: 0.60388
STLB LOAD TRANSLATION ACCESS:      17435  HIT:       2338  MISS:      15097  HIT %:    13.4098  MISS %:    86.5902   MPKI: 0.60388
STLB TRANSLATION FROM L1D PREFETCHER ACCESS:    4300118  HIT:    4300118  MISS:          0  HIT %:        100  MISS %:          0   MPKI: 0
STLB PREFETCH  REQUESTED:          0  ISSUED:          0  USEFUL:          0  USELESS:          0
STLB USEFUL LOAD PREFETCHES:          0 PREFETCH ISSUED TO LOWER LEVEL:          0  ACCURACY: -nan
STLB TIMELY PREFETCHES:          0 LATE PREFETCHES: 0 DROPPED PREFETCHES: 0
STLB PREFETCHES SAME FILL-ORIGIN LEVEL: 0 DIFFERENT FILL-ORIGIN LEVEL: 0
STLB AVERAGE MISS LATENCY: 131.166 cycles
STLB RQ	ACCESS:   12238851	FORWARD:          0	MERGED:    7921298	TO_CACHE:    4317553

STLB Hit, L1D data hit: 0
STLB Hit, L2C data hit: 0
STLB Hit, LLC data hit: 0
STLB Hit, LLC data miss: 0
STLB STLB hints to L2: 0
L1D TOTAL     ACCESS:   16451429  HIT:   13107178  MISS:    3344251  HIT %:     79.672  MISS %:     20.328   MPKI: 133.77
L1D LOAD      ACCESS:    4924684  HIT:    3843256  MISS:    1081428  HIT %:    78.0407  MISS %:    21.9593   MPKI: 43.2571
L1D RFO       ACCESS:     373062  HIT:     373062  MISS:          0  HIT %:        100  MISS %:          0   MPKI: 0
L1D PREFETCH  ACCESS:   11153683  HIT:    8890860  MISS:    2262823  HIT %:    79.7123  MISS %:    20.2877   MPKI: 90.5129
AGUS PREFETCH L1 MISS: 0
L1D PREFETCH  REQUESTED:   25129568  ISSUED:   24934938  USEFUL:     501681  USELESS:    1761070
L1D USEFUL LOAD PREFETCHES:     501681 PREFETCH ISSUED TO LOWER LEVEL:    2273662  ACCURACY: 22.0649
L1D TIMELY PREFETCHES:     501681 LATE PREFETCHES: 10838 DROPPED PREFETCHES: 0
L1D PREFETCHES SAME FILL-ORIGIN LEVEL: 2273662 DIFFERENT FILL-ORIGIN LEVEL: 0
L1D AVERAGE MISS LATENCY: 42.635 cycles
L1D RQ	ACCESS:    6495948	FORWARD:          0	MERGED:    1492118	TO_CACHE:    5003819
L1D WQ	ACCESS:     373078	FORWARD:         34	MERGED:         17	TO_CACHE:     373061
L1D PQ	ACCESS:   12713522	FORWARD:          0	MERGED:     492083	TO_CACHE:   12221416

L1D UNIQUE REGIONS ACCESSED: 0
L1D REGIONS CONFLICTS: 0
L1D Cross Page Prefetch Requests: 0
L1D Same Page Prefetch Requests: 23596437
L1D ROI Sum of L1D PQ occupancy: 163860107
L1D PREFETCHES PUSHED FROM L2C: 0
L1I TOTAL     ACCESS:    5100182  HIT:    5100182  MISS:          0  HIT %:        100  MISS %:          0   MPKI: 0
L1I LOAD      ACCESS:    5100182  HIT:    5100182  MISS:          0  HIT %:        100  MISS %:          0   MPKI: 0
L1I PREFETCH  REQUESTED:          0  ISSUED:          0  USEFUL:          0  USELESS:          0
L1I USEFUL LOAD PREFETCHES:          0 PREFETCH ISSUED TO LOWER LEVEL:          0  ACCURACY: -nan
L1I TIMELY PREFETCHES:          0 LATE PREFETCHES: 0 DROPPED PREFETCHES: 0
L1I PREFETCHES SAME FILL-ORIGIN LEVEL: 0 DIFFERENT FILL-ORIGIN LEVEL: 0
L1I AVERAGE MISS LATENCY: -nan cycles
L1I RQ	ACCESS:    7189442	FORWARD:          0	MERGED:    2089262	TO_CACHE:    5100180

BTB TOTAL     ACCESS:    4758265  HIT:    4758259  MISS:          6  HIT %:    99.9999  MISS %: 0.000126096   MPKI: 0.00024
BTB BRANCH_DIRECT_JUMP	ACCESS:          0  HIT:          0  MISS:          0
BTB BRANCH_INDIRECT	ACCESS:          0  HIT:          0  MISS:          0
BTB BRANCH_CONDITIONAL	ACCESS:    4758265  HIT:    4758259  MISS:          6
BTB BRANCH_DIRECT_CALL	ACCESS:          0  HIT:          0  MISS:          0
BTB BRANCH_INDIRECT_CALL	ACCESS:          0  HIT:          0  MISS:          0
BTB BRANCH_RETURN	ACCESS:          0  HIT:          0  MISS:          0
BTB BRANCH_OTHER ACCESS:          0  HIT:          0  MISS:          0

L2C TOTAL     ACCESS:    3397274  HIT:    2728930  MISS:     668344  HIT %:    80.3271  MISS %:    19.6729   MPKI: 26.7338
L2C LOAD      ACCESS:    1070590  HIT:     998998  MISS:      71592  HIT %:    93.3128  MISS %:    6.68715   MPKI: 2.86368
L2C DATA LOAD MPKI: 2.86368
L2C INSTRUCTION LOAD MPKI: 0
L2C PREFETCH  ACCESS:    2273658  HIT:    1679243  MISS:     594415  HIT %:    73.8564  MISS %:    26.1436   MPKI: 23.7766
AGUS PREFETCH L1 MISS: 0
L2C DATA PREFETCH MPKI: 23.7766
L2C INSTRUCTION PREFETCH MPKI: 0
L2C WRITEBACK ACCESS:      37922  HIT:      37922  MISS:          0  HIT %:        100  MISS %:          0   MPKI: 0
L2C LOAD TRANSLATION ACCESS:      15104  HIT:      12767  MISS:       2337  HIT %:    84.5273  MISS %:    15.4727   MPKI: 0.09348
L2C PREFETCH  REQUESTED:          0  ISSUED:          0  USEFUL:       2263  USELESS:     592067
L2C USEFUL LOAD PREFETCHES:       2263 PREFETCH ISSUED TO LOWER LEVEL:     594415  ACCURACY: 0.38071
L2C TIMELY PREFETCHES:       2263 LATE PREFETCHES: 0 DROPPED PREFETCHES: 0
L2C PREFETCHES SAME FILL-ORIGIN LEVEL: 0 DIFFERENT FILL-ORIGIN LEVEL: 0
L2C AVERAGE MISS LATENCY: 137.895 cycles
L2C RQ	ACCESS:    1085694	FORWARD:          0	MERGED:          0	TO_CACHE:    1085694
L2C WQ	ACCESS:      37922	FORWARD:          3	MERGED:          0	TO_CACHE:      37922
L2C PQ	ACCESS:    2273662	FORWARD:          0	MERGED:          0	TO_CACHE:    2273659

L2C Instructions Evicting Data 0
L2C Translations Evicting Data 2335
L2C Data Evicting Data 663679
L2C Instructions Evicting Instructions 0
L2C Translations Evicting Instructions 0
L2C Data Evicting Instructions 0
L2C Instructions Evicting Translations 0
L2C Translations Evicting Translations 2
L2C Data Evicting Translations 2328
L2C Dense regions hint from L2: 0
PSCL5 TOTAL     ACCESS:      15097  HIT:      15097  MISS:          0  HIT %:        100  MISS %:          0   MPKI: 0
PSCL5 LOAD TRANSLATION ACCESS:      15097  HIT:      15097  MISS:          0  HIT %:        100  MISS %:          0   MPKI: 0
PSCL5 PREFETCH  REQUESTED:          0  ISSUED:          0  USEFUL:          0  USELESS:          0
PSCL5 USEFUL LOAD PREFETCHES:          0 PREFETCH ISSUED TO LOWER LEVEL:          0  ACCURACY: -nan
PSCL5 TIMELY PREFETCHES:          0 LATE PREFETCHES: 0 DROPPED PREFETCHES: 0
PSCL5 PREFETCHES SAME FILL-ORIGIN LEVEL: 0 DIFFERENT FILL-ORIGIN LEVEL: 0

PSCL4 TOTAL     ACCESS:      15097  HIT:      15097  MISS:          0  HIT %:        100  MISS %:          0   MPKI: 0
PSCL4 LOAD TRANSLATION ACCESS:      15097  HIT:      15097  MISS:          0  HIT %:        100  MISS %:          0   MPKI: 0
PSCL4 PREFETCH  REQUESTED:          0  ISSUED:          0  USEFUL:          0  USELESS:          0
PSCL4 USEFUL LOAD PREFETCHES:          0 PREFETCH ISSUED TO LOWER LEVEL:          0  ACCURACY: -nan
PSCL4 TIMELY PREFETCHES:          0 LATE PREFETCHES: 0 DROPPED PREFETCHES: 0
PSCL4 PREFETCHES SAME FILL-ORIGIN LEVEL: 0 DIFFERENT FILL-ORIGIN LEVEL: 0

PSCL3 TOTAL     ACCESS:      15097  HIT:      15097  MISS:          0  HIT %:        100  MISS %:          0   MPKI: 0
PSCL3 LOAD TRANSLATION ACCESS:      15097  HIT:      15097  MISS:          0  HIT %:        100  MISS %:          0   MPKI: 0
PSCL3 PREFETCH  REQUESTED:          0  ISSUED:          0  USEFUL:          0  USELESS:          0
PSCL3 USEFUL LOAD PREFETCHES:          0 PREFETCH ISSUED TO LOWER LEVEL:          0  ACCURACY: -nan
PSCL3 TIMELY PREFETCHES:          0 LATE PREFETCHES: 0 DROPPED PREFETCHES: 0
PSCL3 PREFETCHES SAME FILL-ORIGIN LEVEL: 0 DIFFERENT FILL-ORIGIN LEVEL: 0

PSCL2 TOTAL     ACCESS:      15097  HIT:      15059  MISS:         38  HIT %:    99.7483  MISS %:   0.251706   MPKI: 0.00152
PSCL2 LOAD TRANSLATION ACCESS:      15097  HIT:      15059  MISS:         38  HIT %:    99.7483  MISS %:   0.251706   MPKI: 0.00152
PSCL2 PREFETCH  REQUESTED:          0  ISSUED:          0  USEFUL:          0  USELESS:          0
PSCL2 USEFUL LOAD PREFETCHES:          0 PREFETCH ISSUED TO LOWER LEVEL:          0  ACCURACY: -nan
PSCL2 TIMELY PREFETCHES:          0 LATE PREFETCHES: 0 DROPPED PREFETCHES: 0
PSCL2 PREFETCHES SAME FILL-ORIGIN LEVEL: 0 DIFFERENT FILL-ORIGIN LEVEL: 0

LLC TOTAL     ACCESS:     706352  HIT:      40092  MISS:     666260  HIT %:    5.67592  MISS %:    94.3241   MPKI: 26.6504
LLC LOAD      ACCESS:      71592  HIT:         88  MISS:      71504  HIT %:   0.122919  MISS %:    99.8771   MPKI: 2.86016
LLC PREFETCH  ACCESS:     594415  HIT:       2248  MISS:     592167  HIT %:   0.378187  MISS %:    99.6218   MPKI: 23.6867
AGUS PREFETCH L1 MISS: 0
LLC WRITEBACK ACCESS:      38008  HIT:      37721  MISS:        287  HIT %:    99.2449  MISS %:   0.755104   MPKI: 0.01148
LLC LOAD TRANSLATION ACCESS:       2337  HIT:         35  MISS:       2302  HIT %:    1.49765  MISS %:    98.5024   MPKI: 0.09208
LLC PREFETCH  REQUESTED:          0  ISSUED:          0  USEFUL:         19  USELESS:     591844
LLC USEFUL LOAD PREFETCHES:         19 PREFETCH ISSUED TO LOWER LEVEL:     592167  ACCURACY: 0.00320855
LLC TIMELY PREFETCHES:         19 LATE PREFETCHES: 0 DROPPED PREFETCHES: 0
LLC PREFETCHES SAME FILL-ORIGIN LEVEL: 0 DIFFERENT FILL-ORIGIN LEVEL: 0
LLC AVERAGE MISS LATENCY: 107.911 cycles
LLC RQ	ACCESS:      73929	FORWARD:          0	MERGED:          0	TO_CACHE:      73929
LLC WQ	ACCESS:      38008	FORWARD:          0	MERGED:          0	TO_CACHE:      38008
LLC PQ	ACCESS:     594415	FORWARD:          0	MERGED:          0	TO_CACHE:     594415

LLC Dense regions hint to LLC: 0

RAW hits: 30
Loads Generated: 6495978
Loads sent to L1D: 6495948
Stores Generated: 373078
Stores sent to L1D: 373078
Major fault: 0 Minor fault: 24524
Allocated PAGES: 24524
CPU 0 L1D nextline prefetcher final stats
 Action = 30 : 215464
 Action = 23 : 281884
 Action = 16 : 470806
 Action = 11 : 522122
 Action = 10 : 557197
 Action = 22 : 412486
 Action = 5 : 696496
 Action = 4 : 654904
 Action = 32 : 208609
 Action = -3 : 693560
 Action = 12 : 531511
 Action = -6 : 642616
 Action = 3 : 757467
 Action = 1 : 2076651
 Action = -1 : 835959
 Action = 0 : 18639

DRAM Statistics
 CHANNEL 0
 RQ ROW_BUFFER_HIT:     469846  ROW_BUFFER_MISS:     196127
 DBUS_CONGESTED:       1097
 WQ ROW_BUFFER_HIT:      10694  ROW_BUFFER_MISS:      27386  FULL:          0

 AVG_CONGESTED_CYCLE: 4
 All warmup complete: 2
Channel 0 Bank busy for read cycles: 0
Channel 0 Bank busy for write cycles: 0
Channel 0
Rank 0
0banks busy for read cycles: 37746856
0banks busy for write cycles: 21521
1banks busy for read cycles: 17168526
1banks busy for write cycles: 3424237
2banks busy for read cycles: 8704307
2banks busy for write cycles: 1081404
3banks busy for read cycles: 3560214
3banks busy for write cycles: 412156
4banks busy for read cycles: 1221502
4banks busy for write cycles: 168970
5banks busy for read cycles: 399784
5banks busy for write cycles: 66824
6banks busy for read cycles: 105231
6banks busy for write cycles: 23686
7banks busy for read cycles: 17997
7banks busy for write cycles: 8101
8banks busy for read cycles: 2326
8banks busy for write cycles: 854

CPU 0 Branch Prediction Accuracy: 86.8561% MPKI: 27.1382 Average ROB Occupancy at Mispredict: 13.8173
Branch types
NOT_BRANCH: 19838212 79.3528%
BRANCH_DIRECT_JUMP: 0 0%
BRANCH_INDIRECT: 0 0%
BRANCH_CONDITIONAL: 5161765 20.6471%
BRANCH_DIRECT_CALL: 0 0%
BRANCH_INDIRECT_CALL: 0 0%
BRANCH_RETURN: 0 0%
BRANCH_OTHER: 0 0%

DRAM PAGES: 1048576
Allocated PAGES: 24524
