
*** ChampSim Multicore Out-of-Order Simulator ***

Warmup Instructions: 25000000
Simulation Instructions: 25000000
Number of CPUs: 1
LLC sets: 2048
LLC ways: 16
Off-chip DRAM Size: 4096 MB Channels: 1 Width: 64-bit Data Rate: 6400 MT/s
CPU 0 runs ../traces/bfs-8.trace.gz
.gz
CPU 0 Bimodal branch predictor
BTB has LRU replacement policy
ITLB has LRU replacement policy
DTLB has LRU replacement policy
STLB has LRU replacement policy
L1I has LRU replacement policy
L1D has LRU replacement policy
L2C has LRU replacement policy
LLC has LRU replacement policy
Heartbeat CPU 0 instructions: 10000002 cycles: 2954011 heartbeat IPC: 3.38523 cumulative IPC: 3.38523 (Simulation time: 0 hr 0 min 6 sec) 
Heartbeat CPU 0 instructions: 20000001 cycles: 5922362 heartbeat IPC: 3.36887 cumulative IPC: 3.37703 (Simulation time: 0 hr 0 min 18 sec) 

Warmup complete CPU 0 instructions: 25000001 cycles: 7402448 (Simulation time: 0 hr 0 min 24 sec) 

Heartbeat CPU 0 instructions: 30000000 cycles: 36617484 heartbeat IPC: 0.325785 cumulative IPC: 0.171145 (Simulation time: 0 hr 0 min 34 sec) 
Heartbeat CPU 0 instructions: 40000000 cycles: 98382760 heartbeat IPC: 0.161903 cumulative IPC: 0.164871 (Simulation time: 0 hr 0 min 52 sec) 
Heartbeat CPU 0 instructions: 50000001 cycles: 146935554 heartbeat IPC: 0.205961 cumulative IPC: 0.179169 (Simulation time: 0 hr 1 min 8 sec) 
Finished CPU 0 instructions: 25000000 cycles: 139533106 cumulative IPC: 0.179169 (Simulation time: 0 hr 1 min 8 sec) 

ChampSim completed all CPUs

Region of Interest Statistics

CPU 0 cumulative IPC: 0.179169 instructions: 25000000 cycles: 139533106
ITLB TOTAL     ACCESS:    4215788  HIT:    4215788  MISS:          0  HIT %:        100  MISS %:          0   MPKI: 0
ITLB LOAD TRANSLATION ACCESS:    4215788  HIT:    4215788  MISS:          0  HIT %:        100  MISS %:          0   MPKI: 0
ITLB PREFETCH  REQUESTED:          0  ISSUED:          0  USEFUL:          0  USELESS:          0
ITLB USEFUL LOAD PREFETCHES:          0 PREFETCH ISSUED TO LOWER LEVEL:          0  ACCURACY: -nan
ITLB TIMELY PREFETCHES:          0 LATE PREFETCHES: 0 DROPPED PREFETCHES: 0
ITLB PREFETCHES SAME FILL-ORIGIN LEVEL: 0 DIFFERENT FILL-ORIGIN LEVEL: 0
ITLB AVERAGE MISS LATENCY: -nan cycles
ITLB RQ	ACCESS:    5335371	FORWARD:          0	MERGED:    1119584	TO_CACHE:    4215787

DTLB TOTAL     ACCESS:    5451538  HIT:    5411087  MISS:      40451  HIT %:     99.258  MISS %:   0.742011   MPKI: 1.61804
DTLB LOAD TRANSLATION ACCESS:    5451538  HIT:    5411087  MISS:      40451  HIT %:     99.258  MISS %:   0.742011   MPKI: 1.61804
DTLB PREFETCH  REQUESTED:          0  ISSUED:          0  USEFUL:          0  USELESS:          0
DTLB USEFUL LOAD PREFETCHES:          0 PREFETCH ISSUED TO LOWER LEVEL:          0  ACCURACY: -nan
DTLB TIMELY PREFETCHES:          0 LATE PREFETCHES: 0 DROPPED PREFETCHES: 0
DTLB PREFETCHES SAME FILL-ORIGIN LEVEL: 0 DIFFERENT FILL-ORIGIN LEVEL: 0
DTLB AVERAGE MISS LATENCY: 80.9223 cycles
DTLB RQ	ACCESS:    5837693	FORWARD:          0	MERGED:     385760	TO_CACHE:    5451933

STLB TOTAL     ACCESS:      40451  HIT:       7637  MISS:      32814  HIT %:    18.8796  MISS %:    81.1204   MPKI: 1.31256
STLB LOAD TRANSLATION ACCESS:      40451  HIT:       7637  MISS:      32814  HIT %:    18.8796  MISS %:    81.1204   MPKI: 1.31256
STLB PREFETCH  REQUESTED:          0  ISSUED:          0  USEFUL:          0  USELESS:          0
STLB USEFUL LOAD PREFETCHES:          0 PREFETCH ISSUED TO LOWER LEVEL:          0  ACCURACY: -nan
STLB TIMELY PREFETCHES:          0 LATE PREFETCHES: 0 DROPPED PREFETCHES: 0
STLB PREFETCHES SAME FILL-ORIGIN LEVEL: 0 DIFFERENT FILL-ORIGIN LEVEL: 0
STLB AVERAGE MISS LATENCY: 88.6349 cycles
STLB RQ	ACCESS:      40451	FORWARD:          0	MERGED:          0	TO_CACHE:      40451

STLB Hit, L1D data hit: 0
STLB Hit, L2C data hit: 0
STLB Hit, LLC data hit: 0
STLB Hit, LLC data miss: 0
STLB STLB hints to L2: 0
L1D TOTAL     ACCESS:    5689106  HIT:    4988264  MISS:     700842  HIT %:     87.681  MISS %:     12.319   MPKI: 28.0337
L1D LOAD      ACCESS:    5091007  HIT:    4392723  MISS:     698284  HIT %:     86.284  MISS %:     13.716   MPKI: 27.9314
L1D RFO       ACCESS:     598099  HIT:     595541  MISS:       2558  HIT %:    99.5723  MISS %:   0.427688   MPKI: 0.10232
L1D PREFETCH  REQUESTED:          0  ISSUED:          0  USEFUL:          0  USELESS:          0
L1D USEFUL LOAD PREFETCHES:          0 PREFETCH ISSUED TO LOWER LEVEL:          0  ACCURACY: -nan
L1D TIMELY PREFETCHES:          0 LATE PREFETCHES: 0 DROPPED PREFETCHES: 0
L1D PREFETCHES SAME FILL-ORIGIN LEVEL: 0 DIFFERENT FILL-ORIGIN LEVEL: 0
L1D AVERAGE MISS LATENCY: 125.731 cycles
L1D RQ	ACCESS:    6590082	FORWARD:          0	MERGED:    1355191	TO_CACHE:    5233813
L1D WQ	ACCESS:     622503	FORWARD:       1078	MERGED:      18623	TO_CACHE:     603880

L1D UNIQUE REGIONS ACCESSED: 0
L1D REGIONS CONFLICTS: 0
L1D Cross Page Prefetch Requests: 0
L1D Same Page Prefetch Requests: 0
L1D ROI Sum of L1D PQ occupancy: 0
L1D PREFETCHES PUSHED FROM L2C: 0
L1I TOTAL     ACCESS:    5335372  HIT:    5335368  MISS:          4  HIT %:    99.9999  MISS %: 7.49713e-05   MPKI: 0.00016
L1I LOAD      ACCESS:    5335372  HIT:    5335368  MISS:          4  HIT %:    99.9999  MISS %: 7.49713e-05   MPKI: 0.00016
L1I PREFETCH  REQUESTED:          0  ISSUED:          0  USEFUL:          0  USELESS:          0
L1I USEFUL LOAD PREFETCHES:          0 PREFETCH ISSUED TO LOWER LEVEL:          0  ACCURACY: -nan
L1I TIMELY PREFETCHES:          0 LATE PREFETCHES: 0 DROPPED PREFETCHES: 0
L1I PREFETCHES SAME FILL-ORIGIN LEVEL: 0 DIFFERENT FILL-ORIGIN LEVEL: 0
L1I AVERAGE MISS LATENCY: 189 cycles
L1I RQ	ACCESS:    7998132	FORWARD:          0	MERGED:    2662761	TO_CACHE:    5335371

BTB TOTAL     ACCESS:    3583893  HIT:    3583820  MISS:         73  HIT %:     99.998  MISS %: 0.00203689   MPKI: 0.00292
BTB BRANCH_DIRECT_JUMP	ACCESS:         27  HIT:          9  MISS:         18
BTB BRANCH_INDIRECT	ACCESS:          0  HIT:          0  MISS:          0
BTB BRANCH_CONDITIONAL	ACCESS:    3583841  HIT:    3583804  MISS:         37
BTB BRANCH_DIRECT_CALL	ACCESS:         13  HIT:          4  MISS:          9
BTB BRANCH_INDIRECT_CALL	ACCESS:          0  HIT:          0  MISS:          0
BTB BRANCH_RETURN	ACCESS:         12  HIT:          3  MISS:          9
BTB BRANCH_OTHER ACCESS:          0  HIT:          0  MISS:          0

L2C TOTAL     ACCESS:     800386  HIT:     289532  MISS:     510854  HIT %:     36.174  MISS %:     63.826   MPKI: 20.4342
L2C LOAD      ACCESS:     698288  HIT:     194663  MISS:     503625  HIT %:    27.8772  MISS %:    72.1228   MPKI: 20.145
L2C DATA LOAD MPKI: 20.1448
L2C INSTRUCTION LOAD MPKI: 0.00016
L2C RFO       ACCESS:       2559  HIT:       1546  MISS:       1013  HIT %:    60.4142  MISS %:    39.5858   MPKI: 0.04052
L2C WRITEBACK ACCESS:      66623  HIT:      66618  MISS:          5  HIT %:    99.9925  MISS %: 0.00750492   MPKI: 0.0002
L2C LOAD TRANSLATION ACCESS:      32916  HIT:      26705  MISS:       6211  HIT %:    81.1308  MISS %:    18.8692   MPKI: 0.24844
L2C PREFETCH  REQUESTED:          0  ISSUED:          0  USEFUL:          0  USELESS:          0
L2C USEFUL LOAD PREFETCHES:          0 PREFETCH ISSUED TO LOWER LEVEL:          0  ACCURACY: -nan
L2C TIMELY PREFETCHES:          0 LATE PREFETCHES: 0 DROPPED PREFETCHES: 0
L2C PREFETCHES SAME FILL-ORIGIN LEVEL: 0 DIFFERENT FILL-ORIGIN LEVEL: 0
L2C AVERAGE MISS LATENCY: 154.237 cycles
L2C RQ	ACCESS:     733763	FORWARD:          0	MERGED:          0	TO_CACHE:     733763
L2C WQ	ACCESS:      66623	FORWARD:          0	MERGED:          0	TO_CACHE:      66623

L2C Instructions Evicting Data 4
L2C Translations Evicting Data 6139
L2C Data Evicting Data 498555
L2C Instructions Evicting Instructions 0
L2C Translations Evicting Instructions 0
L2C Data Evicting Instructions 1
L2C Instructions Evicting Translations 0
L2C Translations Evicting Translations 72
L2C Data Evicting Translations 6078
L2C Dense regions hint from L2: 0
PSCL5 TOTAL     ACCESS:      32814  HIT:      32814  MISS:          0  HIT %:        100  MISS %:          0   MPKI: 0
PSCL5 LOAD TRANSLATION ACCESS:      32814  HIT:      32814  MISS:          0  HIT %:        100  MISS %:          0   MPKI: 0
PSCL5 PREFETCH  REQUESTED:          0  ISSUED:          0  USEFUL:          0  USELESS:          0
PSCL5 USEFUL LOAD PREFETCHES:          0 PREFETCH ISSUED TO LOWER LEVEL:          0  ACCURACY: -nan
PSCL5 TIMELY PREFETCHES:          0 LATE PREFETCHES: 0 DROPPED PREFETCHES: 0
PSCL5 PREFETCHES SAME FILL-ORIGIN LEVEL: 0 DIFFERENT FILL-ORIGIN LEVEL: 0

PSCL4 TOTAL     ACCESS:      32814  HIT:      32814  MISS:          0  HIT %:        100  MISS %:          0   MPKI: 0
PSCL4 LOAD TRANSLATION ACCESS:      32814  HIT:      32814  MISS:          0  HIT %:        100  MISS %:          0   MPKI: 0
PSCL4 PREFETCH  REQUESTED:          0  ISSUED:          0  USEFUL:          0  USELESS:          0
PSCL4 USEFUL LOAD PREFETCHES:          0 PREFETCH ISSUED TO LOWER LEVEL:          0  ACCURACY: -nan
PSCL4 TIMELY PREFETCHES:          0 LATE PREFETCHES: 0 DROPPED PREFETCHES: 0
PSCL4 PREFETCHES SAME FILL-ORIGIN LEVEL: 0 DIFFERENT FILL-ORIGIN LEVEL: 0

PSCL3 TOTAL     ACCESS:      32814  HIT:      32814  MISS:          0  HIT %:        100  MISS %:          0   MPKI: 0
PSCL3 LOAD TRANSLATION ACCESS:      32814  HIT:      32814  MISS:          0  HIT %:        100  MISS %:          0   MPKI: 0
PSCL3 PREFETCH  REQUESTED:          0  ISSUED:          0  USEFUL:          0  USELESS:          0
PSCL3 USEFUL LOAD PREFETCHES:          0 PREFETCH ISSUED TO LOWER LEVEL:          0  ACCURACY: -nan
PSCL3 TIMELY PREFETCHES:          0 LATE PREFETCHES: 0 DROPPED PREFETCHES: 0
PSCL3 PREFETCHES SAME FILL-ORIGIN LEVEL: 0 DIFFERENT FILL-ORIGIN LEVEL: 0

PSCL2 TOTAL     ACCESS:      32814  HIT:      32700  MISS:        114  HIT %:    99.6526  MISS %:   0.347413   MPKI: 0.00456
PSCL2 LOAD TRANSLATION ACCESS:      32814  HIT:      32700  MISS:        114  HIT %:    99.6526  MISS %:   0.347413   MPKI: 0.00456
PSCL2 PREFETCH  REQUESTED:          0  ISSUED:          0  USEFUL:          0  USELESS:          0
PSCL2 USEFUL LOAD PREFETCHES:          0 PREFETCH ISSUED TO LOWER LEVEL:          0  ACCURACY: -nan
PSCL2 TIMELY PREFETCHES:          0 LATE PREFETCHES: 0 DROPPED PREFETCHES: 0
PSCL2 PREFETCHES SAME FILL-ORIGIN LEVEL: 0 DIFFERENT FILL-ORIGIN LEVEL: 0

LLC TOTAL     ACCESS:     577301  HIT:      93887  MISS:     483414  HIT %:    16.2631  MISS %:    83.7369   MPKI: 19.3366
LLC LOAD      ACCESS:     503625  HIT:      27994  MISS:     475631  HIT %:     5.5585  MISS %:    94.4415   MPKI: 19.0252
LLC RFO       ACCESS:       1013  HIT:        244  MISS:        769  HIT %:    24.0869  MISS %:    75.9131   MPKI: 0.03076
LLC WRITEBACK ACCESS:      66452  HIT:      65556  MISS:        896  HIT %:    98.6517  MISS %:    1.34834   MPKI: 0.03584
LLC LOAD TRANSLATION ACCESS:       6211  HIT:         93  MISS:       6118  HIT %:    1.49734  MISS %:    98.5027   MPKI: 0.24472
LLC PREFETCH  REQUESTED:          0  ISSUED:          0  USEFUL:          0  USELESS:          0
LLC USEFUL LOAD PREFETCHES:          0 PREFETCH ISSUED TO LOWER LEVEL:          0  ACCURACY: -nan
LLC TIMELY PREFETCHES:          0 LATE PREFETCHES: 0 DROPPED PREFETCHES: 0
LLC PREFETCHES SAME FILL-ORIGIN LEVEL: 0 DIFFERENT FILL-ORIGIN LEVEL: 0
LLC AVERAGE MISS LATENCY: 131.226 cycles
LLC RQ	ACCESS:     510849	FORWARD:          0	MERGED:          0	TO_CACHE:     510849
LLC WQ	ACCESS:      66452	FORWARD:          0	MERGED:          0	TO_CACHE:      66452

LLC Dense regions hint to LLC: 0

RAW hits: 32842
Loads Generated: 6622926
Loads sent to L1D: 6590082
Stores Generated: 622498
Stores sent to L1D: 622503
Major fault: 0 Minor fault: 26948
Allocated PAGES: 26948

DRAM Statistics
 CHANNEL 0
 RQ ROW_BUFFER_HIT:     194086  ROW_BUFFER_MISS:     288432
 DBUS_CONGESTED:         49
 WQ ROW_BUFFER_HIT:      15852  ROW_BUFFER_MISS:      50934  FULL:          0

 AVG_CONGESTED_CYCLE: 5
 All warmup complete: 2
Channel 0 Bank busy for read cycles: 0
Channel 0 Bank busy for write cycles: 0
Channel 0
Rank 0
0banks busy for read cycles: 80450878
0banks busy for write cycles: 61115
1banks busy for read cycles: 43573334
1banks busy for write cycles: 10473678
2banks busy for read cycles: 3992320
2banks busy for write cycles: 506469
3banks busy for read cycles: 413585
3banks busy for write cycles: 18777
4banks busy for read cycles: 40082
4banks busy for write cycles: 811
5banks busy for read cycles: 2029
5banks busy for write cycles: 0
6banks busy for read cycles: 29
6banks busy for write cycles: 0
7banks busy for read cycles: 0
7banks busy for write cycles: 0
8banks busy for read cycles: 0
8banks busy for write cycles: 0

CPU 0 Branch Prediction Accuracy: 81.7522% MPKI: 37.606 Average ROB Occupancy at Mispredict: 8.40633
Branch types
NOT_BRANCH: 19847557 79.3902%
BRANCH_DIRECT_JUMP: 27 0.000108%
BRANCH_INDIRECT: 0 0%
BRANCH_CONDITIONAL: 5152065 20.6083%
BRANCH_DIRECT_CALL: 13 5.2e-05%
BRANCH_INDIRECT_CALL: 0 0%
BRANCH_RETURN: 12 4.8e-05%
BRANCH_OTHER: 0 0%

DRAM PAGES: 1048576
Allocated PAGES: 26948
