
*** ChampSim Multicore Out-of-Order Simulator ***

Warmup Instructions: 25000000
Simulation Instructions: 25000000
Number of CPUs: 1
LLC sets: 2048
LLC ways: 16
Off-chip DRAM Size: 4096 MB Channels: 1 Width: 64-bit Data Rate: 6400 MT/s
CPU 0 runs ../traces/cc-14.trace.gz
.gz
CPU 0 Bimodal branch predictor
BTB has LRU replacement policy
ITLB has LRU replacement policy
DTLB has LRU replacement policy
STLB has LRU replacement policy
L1I has LRU replacement policy
L1D has LRU replacement policy
L2C has LRU replacement policy
LLC has LRU replacement policy
Heartbeat CPU 0 instructions: 10000002 cycles: 2962906 heartbeat IPC: 3.37507 cumulative IPC: 3.37507 (Simulation time: 0 hr 0 min 10 sec) 
Heartbeat CPU 0 instructions: 20000001 cycles: 5882328 heartbeat IPC: 3.42534 cumulative IPC: 3.40001 (Simulation time: 0 hr 0 min 22 sec) 

Warmup complete CPU 0 instructions: 25000004 cycles: 7344481 (Simulation time: 0 hr 0 min 28 sec) 

Heartbeat CPU 0 instructions: 30000001 cycles: 34186662 heartbeat IPC: 0.353303 cumulative IPC: 0.186274 (Simulation time: 0 hr 0 min 38 sec) 
Heartbeat CPU 0 instructions: 40000003 cycles: 86777701 heartbeat IPC: 0.190147 cumulative IPC: 0.188838 (Simulation time: 0 hr 0 min 57 sec) 
Heartbeat CPU 0 instructions: 50000001 cycles: 138997549 heartbeat IPC: 0.191498 cumulative IPC: 0.189893 (Simulation time: 0 hr 1 min 17 sec) 
Finished CPU 0 instructions: 25000001 cycles: 131653069 cumulative IPC: 0.189893 (Simulation time: 0 hr 1 min 17 sec) 

ChampSim completed all CPUs

Region of Interest Statistics

CPU 0 cumulative IPC: 0.189893 instructions: 25000001 cycles: 131653069
ITLB TOTAL     ACCESS:    3831087  HIT:    3831087  MISS:          0  HIT %:        100  MISS %:          0   MPKI: 0
ITLB LOAD TRANSLATION ACCESS:    3831087  HIT:    3831087  MISS:          0  HIT %:        100  MISS %:          0   MPKI: 0
ITLB PREFETCH  REQUESTED:          0  ISSUED:          0  USEFUL:          0  USELESS:          0
ITLB USEFUL LOAD PREFETCHES:          0 PREFETCH ISSUED TO LOWER LEVEL:          0  ACCURACY: -nan
ITLB TIMELY PREFETCHES:          0 LATE PREFETCHES: 0 DROPPED PREFETCHES: 0
ITLB PREFETCHES SAME FILL-ORIGIN LEVEL: 0 DIFFERENT FILL-ORIGIN LEVEL: 0
ITLB AVERAGE MISS LATENCY: -nan cycles
ITLB RQ	ACCESS:    3891393	FORWARD:          0	MERGED:      60307	TO_CACHE:    3831086

DTLB TOTAL     ACCESS:    5059477  HIT:    3872307  MISS:    1187170  HIT %:    76.5357  MISS %:    23.4643   MPKI: 47.4868
DTLB LOAD TRANSLATION ACCESS:    5059477  HIT:    3872307  MISS:    1187170  HIT %:    76.5357  MISS %:    23.4643   MPKI: 47.4868
DTLB PREFETCH  REQUESTED:          0  ISSUED:          0  USEFUL:          0  USELESS:          0
DTLB USEFUL LOAD PREFETCHES:          0 PREFETCH ISSUED TO LOWER LEVEL:          0  ACCURACY: -nan
DTLB TIMELY PREFETCHES:          0 LATE PREFETCHES: 0 DROPPED PREFETCHES: 0
DTLB PREFETCHES SAME FILL-ORIGIN LEVEL: 0 DIFFERENT FILL-ORIGIN LEVEL: 0
DTLB AVERAGE MISS LATENCY: 9.66083 cycles
DTLB RQ	ACCESS:    5338990	FORWARD:          0	MERGED:     272901	TO_CACHE:    5066089

STLB TOTAL     ACCESS:    1187170  HIT:    1185382  MISS:       1788  HIT %:    99.8494  MISS %:    0.15061   MPKI: 0.07152
STLB LOAD TRANSLATION ACCESS:    1187170  HIT:    1185382  MISS:       1788  HIT %:    99.8494  MISS %:    0.15061   MPKI: 0.07152
STLB PREFETCH  REQUESTED:          0  ISSUED:          0  USEFUL:          0  USELESS:          0
STLB USEFUL LOAD PREFETCHES:          0 PREFETCH ISSUED TO LOWER LEVEL:          0  ACCURACY: -nan
STLB TIMELY PREFETCHES:          0 LATE PREFETCHES: 0 DROPPED PREFETCHES: 0
STLB PREFETCHES SAME FILL-ORIGIN LEVEL: 0 DIFFERENT FILL-ORIGIN LEVEL: 0
STLB AVERAGE MISS LATENCY: 138.338 cycles
STLB RQ	ACCESS:    1187170	FORWARD:          0	MERGED:          0	TO_CACHE:    1187170

STLB Hit, L1D data hit: 0
STLB Hit, L2C data hit: 0
STLB Hit, LLC data hit: 0
STLB Hit, LLC data miss: 0
STLB STLB hints to L2: 0
L1D TOTAL     ACCESS:    5197556  HIT:    3378145  MISS:    1819411  HIT %:    64.9949  MISS %:    35.0051   MPKI: 72.7764
L1D LOAD      ACCESS:    5096873  HIT:    3277462  MISS:    1819411  HIT %:    64.3034  MISS %:    35.6966   MPKI: 72.7764
L1D RFO       ACCESS:     100683  HIT:     100683  MISS:          0  HIT %:        100  MISS %:          0   MPKI: 0
L1D PREFETCH  REQUESTED:          0  ISSUED:          0  USEFUL:          0  USELESS:          0
L1D USEFUL LOAD PREFETCHES:          0 PREFETCH ISSUED TO LOWER LEVEL:          0  ACCURACY: -nan
L1D TIMELY PREFETCHES:          0 LATE PREFETCHES: 0 DROPPED PREFETCHES: 0
L1D PREFETCHES SAME FILL-ORIGIN LEVEL: 0 DIFFERENT FILL-ORIGIN LEVEL: 0
L1D AVERAGE MISS LATENCY: 85.3114 cycles
L1D RQ	ACCESS:    6753083	FORWARD:          0	MERGED:    1514556	TO_CACHE:    5238307
L1D WQ	ACCESS:     100683	FORWARD:        220	MERGED:          0	TO_CACHE:     100683

L1D UNIQUE REGIONS ACCESSED: 0
L1D REGIONS CONFLICTS: 0
L1D Cross Page Prefetch Requests: 0
L1D Same Page Prefetch Requests: 0
L1D ROI Sum of L1D PQ occupancy: 0
L1D PREFETCHES PUSHED FROM L2C: 0
L1I TOTAL     ACCESS:    3891394  HIT:    3891394  MISS:          0  HIT %:        100  MISS %:          0   MPKI: 0
L1I LOAD      ACCESS:    3891394  HIT:    3891394  MISS:          0  HIT %:        100  MISS %:          0   MPKI: 0
L1I PREFETCH  REQUESTED:          0  ISSUED:          0  USEFUL:          0  USELESS:          0
L1I USEFUL LOAD PREFETCHES:          0 PREFETCH ISSUED TO LOWER LEVEL:          0  ACCURACY: -nan
L1I TIMELY PREFETCHES:          0 LATE PREFETCHES: 0 DROPPED PREFETCHES: 0
L1I PREFETCHES SAME FILL-ORIGIN LEVEL: 0 DIFFERENT FILL-ORIGIN LEVEL: 0
L1I AVERAGE MISS LATENCY: -nan cycles
L1I RQ	ACCESS:    6867814	FORWARD:          0	MERGED:    2976421	TO_CACHE:    3891393

BTB TOTAL     ACCESS:    4970731  HIT:    4970726  MISS:          5  HIT %:    99.9999  MISS %: 0.000100589   MPKI: 0.0002
BTB BRANCH_DIRECT_JUMP	ACCESS:          0  HIT:          0  MISS:          0
BTB BRANCH_INDIRECT	ACCESS:          0  HIT:          0  MISS:          0
BTB BRANCH_CONDITIONAL	ACCESS:    4970731  HIT:    4970726  MISS:          5
BTB BRANCH_DIRECT_CALL	ACCESS:          0  HIT:          0  MISS:          0
BTB BRANCH_INDIRECT_CALL	ACCESS:          0  HIT:          0  MISS:          0
BTB BRANCH_RETURN	ACCESS:          0  HIT:          0  MISS:          0
BTB BRANCH_OTHER ACCESS:          0  HIT:          0  MISS:          0

L2C TOTAL     ACCESS:    1905943  HIT:     637975  MISS:    1267968  HIT %:    33.4729  MISS %:    66.5271   MPKI: 50.7187
L2C LOAD      ACCESS:    1819411  HIT:     551769  MISS:    1267642  HIT %:    30.3268  MISS %:    69.6732   MPKI: 50.7057
L2C DATA LOAD MPKI: 50.7057
L2C INSTRUCTION LOAD MPKI: 0
L2C WRITEBACK ACCESS:      84744  HIT:      84723  MISS:         21  HIT %:    99.9752  MISS %:  0.0247805   MPKI: 0.00084
L2C LOAD TRANSLATION ACCESS:       1788  HIT:       1483  MISS:        305  HIT %:    82.9418  MISS %:    17.0582   MPKI: 0.0122
L2C PREFETCH  REQUESTED:          0  ISSUED:          0  USEFUL:          0  USELESS:          0
L2C USEFUL LOAD PREFETCHES:          0 PREFETCH ISSUED TO LOWER LEVEL:          0  ACCURACY: -nan
L2C TIMELY PREFETCHES:          0 LATE PREFETCHES: 0 DROPPED PREFETCHES: 0
L2C PREFETCHES SAME FILL-ORIGIN LEVEL: 0 DIFFERENT FILL-ORIGIN LEVEL: 0
L2C AVERAGE MISS LATENCY: 100.624 cycles
L2C RQ	ACCESS:    1821199	FORWARD:          0	MERGED:          0	TO_CACHE:    1821199
L2C WQ	ACCESS:      84744	FORWARD:          0	MERGED:          0	TO_CACHE:      84744

L2C Instructions Evicting Data 0
L2C Translations Evicting Data 305
L2C Data Evicting Data 1267337
L2C Instructions Evicting Instructions 0
L2C Translations Evicting Instructions 0
L2C Data Evicting Instructions 0
L2C Instructions Evicting Translations 0
L2C Translations Evicting Translations 0
L2C Data Evicting Translations 305
L2C Dense regions hint from L2: 0
PSCL5 TOTAL     ACCESS:       1788  HIT:       1788  MISS:          0  HIT %:        100  MISS %:          0   MPKI: 0
PSCL5 LOAD TRANSLATION ACCESS:       1788  HIT:       1788  MISS:          0  HIT %:        100  MISS %:          0   MPKI: 0
PSCL5 PREFETCH  REQUESTED:          0  ISSUED:          0  USEFUL:          0  USELESS:          0
PSCL5 USEFUL LOAD PREFETCHES:          0 PREFETCH ISSUED TO LOWER LEVEL:          0  ACCURACY: -nan
PSCL5 TIMELY PREFETCHES:          0 LATE PREFETCHES: 0 DROPPED PREFETCHES: 0
PSCL5 PREFETCHES SAME FILL-ORIGIN LEVEL: 0 DIFFERENT FILL-ORIGIN LEVEL: 0

PSCL4 TOTAL     ACCESS:       1788  HIT:       1788  MISS:          0  HIT %:        100  MISS %:          0   MPKI: 0
PSCL4 LOAD TRANSLATION ACCESS:       1788  HIT:       1788  MISS:          0  HIT %:        100  MISS %:          0   MPKI: 0
PSCL4 PREFETCH  REQUESTED:          0  ISSUED:          0  USEFUL:          0  USELESS:          0
PSCL4 USEFUL LOAD PREFETCHES:          0 PREFETCH ISSUED TO LOWER LEVEL:          0  ACCURACY: -nan
PSCL4 TIMELY PREFETCHES:          0 LATE PREFETCHES: 0 DROPPED PREFETCHES: 0
PSCL4 PREFETCHES SAME FILL-ORIGIN LEVEL: 0 DIFFERENT FILL-ORIGIN LEVEL: 0

PSCL3 TOTAL     ACCESS:       1788  HIT:       1788  MISS:          0  HIT %:        100  MISS %:          0   MPKI: 0
PSCL3 LOAD TRANSLATION ACCESS:       1788  HIT:       1788  MISS:          0  HIT %:        100  MISS %:          0   MPKI: 0
PSCL3 PREFETCH  REQUESTED:          0  ISSUED:          0  USEFUL:          0  USELESS:          0
PSCL3 USEFUL LOAD PREFETCHES:          0 PREFETCH ISSUED TO LOWER LEVEL:          0  ACCURACY: -nan
PSCL3 TIMELY PREFETCHES:          0 LATE PREFETCHES: 0 DROPPED PREFETCHES: 0
PSCL3 PREFETCHES SAME FILL-ORIGIN LEVEL: 0 DIFFERENT FILL-ORIGIN LEVEL: 0

PSCL2 TOTAL     ACCESS:       1788  HIT:       1785  MISS:          3  HIT %:    99.8322  MISS %:   0.167785   MPKI: 0.00012
PSCL2 LOAD TRANSLATION ACCESS:       1788  HIT:       1785  MISS:          3  HIT %:    99.8322  MISS %:   0.167785   MPKI: 0.00012
PSCL2 PREFETCH  REQUESTED:          0  ISSUED:          0  USEFUL:          0  USELESS:          0
PSCL2 USEFUL LOAD PREFETCHES:          0 PREFETCH ISSUED TO LOWER LEVEL:          0  ACCURACY: -nan
PSCL2 TIMELY PREFETCHES:          0 LATE PREFETCHES: 0 DROPPED PREFETCHES: 0
PSCL2 PREFETCHES SAME FILL-ORIGIN LEVEL: 0 DIFFERENT FILL-ORIGIN LEVEL: 0

LLC TOTAL     ACCESS:    1352349  HIT:     799560  MISS:     552789  HIT %:    59.1238  MISS %:    40.8762   MPKI: 22.1116
LLC LOAD      ACCESS:    1267642  HIT:     715298  MISS:     552344  HIT %:    56.4274  MISS %:    43.5726   MPKI: 22.0938
LLC WRITEBACK ACCESS:      84402  HIT:      84185  MISS:        217  HIT %:    99.7429  MISS %:   0.257103   MPKI: 0.00868
LLC LOAD TRANSLATION ACCESS:        305  HIT:         77  MISS:        228  HIT %:    25.2459  MISS %:    74.7541   MPKI: 0.00912
LLC PREFETCH  REQUESTED:          0  ISSUED:          0  USEFUL:          0  USELESS:          0
LLC USEFUL LOAD PREFETCHES:          0 PREFETCH ISSUED TO LOWER LEVEL:          0  ACCURACY: -nan
LLC TIMELY PREFETCHES:          0 LATE PREFETCHES: 0 DROPPED PREFETCHES: 0
LLC PREFETCHES SAME FILL-ORIGIN LEVEL: 0 DIFFERENT FILL-ORIGIN LEVEL: 0
LLC AVERAGE MISS LATENCY: 161.903 cycles
LLC RQ	ACCESS:    1267947	FORWARD:          0	MERGED:          0	TO_CACHE:    1267947
LLC WQ	ACCESS:      84402	FORWARD:          0	MERGED:          0	TO_CACHE:      84402

LLC Dense regions hint to LLC: 0

RAW hits: 13492
Loads Generated: 6766575
Loads sent to L1D: 6753083
Stores Generated: 100682
Stores sent to L1D: 100683
Major fault: 0 Minor fault: 4495
Allocated PAGES: 4495

DRAM Statistics
 CHANNEL 0
 RQ ROW_BUFFER_HIT:      85172  ROW_BUFFER_MISS:     467398
 DBUS_CONGESTED:         56
 WQ ROW_BUFFER_HIT:      27999  ROW_BUFFER_MISS:      52930  FULL:          0

 AVG_CONGESTED_CYCLE: 4
 All warmup complete: 2
Channel 0 Bank busy for read cycles: 0
Channel 0 Bank busy for write cycles: 0
Channel 0
Rank 0
0banks busy for read cycles: 62372762
0banks busy for write cycles: 63403
1banks busy for read cycles: 41431528
1banks busy for write cycles: 11528227
2banks busy for read cycles: 10658590
2banks busy for write cycles: 1708983
3banks busy for read cycles: 2929337
3banks busy for write cycles: 240064
4banks busy for read cycles: 604749
4banks busy for write cycles: 30075
5banks busy for read cycles: 75896
5banks busy for write cycles: 3582
6banks busy for read cycles: 5401
6banks busy for write cycles: 329
7banks busy for read cycles: 144
7banks busy for write cycles: 0
8banks busy for read cycles: 0
8banks busy for write cycles: 0

CPU 0 Branch Prediction Accuracy: 90.0428% MPKI: 19.8837 Average ROB Occupancy at Mispredict: 27.9623
Branch types
NOT_BRANCH: 20007368 80.0295%
BRANCH_DIRECT_JUMP: 0 0%
BRANCH_INDIRECT: 0 0%
BRANCH_CONDITIONAL: 4992273 19.9691%
BRANCH_DIRECT_CALL: 0 0%
BRANCH_INDIRECT_CALL: 0 0%
BRANCH_RETURN: 0 0%
BRANCH_OTHER: 0 0%

DRAM PAGES: 1048576
Allocated PAGES: 4495
