
*** ChampSim Multicore Out-of-Order Simulator ***

Warmup Instructions: 25000000
Simulation Instructions: 25000000
Number of CPUs: 1
LLC sets: 2048
LLC ways: 16
Off-chip DRAM Size: 4096 MB Channels: 1 Width: 64-bit Data Rate: 6400 MT/s
CPU 0 runs ../traces/cc-5.trace.gz
.gz
CPU 0 Bimodal branch predictor
BTB has LRU replacement policy
ITLB has LRU replacement policy
DTLB has LRU replacement policy
STLB has LRU replacement policy
L1I has LRU replacement policy
L1D has LRU replacement policy
L2C has LRU replacement policy
LLC has LRU replacement policy
Heartbeat CPU 0 instructions: 10000001 cycles: 2962357 heartbeat IPC: 3.37569 cumulative IPC: 3.37569 (Simulation time: 0 hr 0 min 10 sec) 
Heartbeat CPU 0 instructions: 20000001 cycles: 5872578 heartbeat IPC: 3.43617 cumulative IPC: 3.40566 (Simulation time: 0 hr 0 min 22 sec) 

Warmup complete CPU 0 instructions: 25000001 cycles: 7330930 (Simulation time: 0 hr 0 min 28 sec) 

Heartbeat CPU 0 instructions: 30000000 cycles: 31014183 heartbeat IPC: 0.397747 cumulative IPC: 0.21112 (Simulation time: 0 hr 0 min 38 sec) 
Heartbeat CPU 0 instructions: 40000000 cycles: 78335100 heartbeat IPC: 0.211323 cumulative IPC: 0.211255 (Simulation time: 0 hr 0 min 59 sec) 
Heartbeat CPU 0 instructions: 50000002 cycles: 123842320 heartbeat IPC: 0.219745 cumulative IPC: 0.214571 (Simulation time: 0 hr 1 min 19 sec) 
Finished CPU 0 instructions: 25000001 cycles: 116511390 cumulative IPC: 0.214571 (Simulation time: 0 hr 1 min 19 sec) 

ChampSim completed all CPUs

Region of Interest Statistics

CPU 0 cumulative IPC: 0.214571 instructions: 25000001 cycles: 116511390
ITLB TOTAL     ACCESS:    3711335  HIT:    3711335  MISS:          0  HIT %:        100  MISS %:          0   MPKI: 0
ITLB LOAD TRANSLATION ACCESS:    3711335  HIT:    3711335  MISS:          0  HIT %:        100  MISS %:          0   MPKI: 0
ITLB PREFETCH  REQUESTED:          0  ISSUED:          0  USEFUL:          0  USELESS:          0
ITLB USEFUL LOAD PREFETCHES:          0 PREFETCH ISSUED TO LOWER LEVEL:          0  ACCURACY: -nan
ITLB TIMELY PREFETCHES:          0 LATE PREFETCHES: 0 DROPPED PREFETCHES: 0
ITLB PREFETCHES SAME FILL-ORIGIN LEVEL: 0 DIFFERENT FILL-ORIGIN LEVEL: 0
ITLB AVERAGE MISS LATENCY: -nan cycles
ITLB RQ	ACCESS:    3769192	FORWARD:          0	MERGED:      57858	TO_CACHE:    3711334

DTLB TOTAL     ACCESS:    4877213  HIT:    3780415  MISS:    1096798  HIT %:    77.5118  MISS %:    22.4882   MPKI: 43.8719
DTLB LOAD TRANSLATION ACCESS:    4877213  HIT:    3780415  MISS:    1096798  HIT %:    77.5118  MISS %:    22.4882   MPKI: 43.8719
DTLB PREFETCH  REQUESTED:          0  ISSUED:          0  USEFUL:          0  USELESS:          0
DTLB USEFUL LOAD PREFETCHES:          0 PREFETCH ISSUED TO LOWER LEVEL:          0  ACCURACY: -nan
DTLB TIMELY PREFETCHES:          0 LATE PREFETCHES: 0 DROPPED PREFETCHES: 0
DTLB PREFETCHES SAME FILL-ORIGIN LEVEL: 0 DIFFERENT FILL-ORIGIN LEVEL: 0
DTLB AVERAGE MISS LATENCY: 9.71923 cycles
DTLB RQ	ACCESS:    5198224	FORWARD:          0	MERGED:     312674	TO_CACHE:    4885550

STLB TOTAL     ACCESS:    1096798  HIT:    1095058  MISS:       1740  HIT %:    99.8414  MISS %:   0.158644   MPKI: 0.0696
STLB LOAD TRANSLATION ACCESS:    1096798  HIT:    1095058  MISS:       1740  HIT %:    99.8414  MISS %:   0.158644   MPKI: 0.0696
STLB PREFETCH  REQUESTED:          0  ISSUED:          0  USEFUL:          0  USELESS:          0
STLB USEFUL LOAD PREFETCHES:          0 PREFETCH ISSUED TO LOWER LEVEL:          0  ACCURACY: -nan
STLB TIMELY PREFETCHES:          0 LATE PREFETCHES: 0 DROPPED PREFETCHES: 0
STLB PREFETCHES SAME FILL-ORIGIN LEVEL: 0 DIFFERENT FILL-ORIGIN LEVEL: 0
STLB AVERAGE MISS LATENCY: 138.733 cycles
STLB RQ	ACCESS:    1096798	FORWARD:          0	MERGED:          0	TO_CACHE:    1096798

STLB Hit, L1D data hit: 0
STLB Hit, L2C data hit: 0
STLB Hit, LLC data hit: 0
STLB Hit, LLC data miss: 0
STLB STLB hints to L2: 0
L1D TOTAL     ACCESS:    5037111  HIT:    3253065  MISS:    1784046  HIT %:     64.582  MISS %:     35.418   MPKI: 71.3618
L1D LOAD      ACCESS:    4934561  HIT:    3150515  MISS:    1784046  HIT %:    63.8459  MISS %:    36.1541   MPKI: 71.3618
L1D RFO       ACCESS:     102550  HIT:     102550  MISS:          0  HIT %:        100  MISS %:          0   MPKI: 0
L1D PREFETCH  REQUESTED:          0  ISSUED:          0  USEFUL:          0  USELESS:          0
L1D USEFUL LOAD PREFETCHES:          0 PREFETCH ISSUED TO LOWER LEVEL:          0  ACCURACY: -nan
L1D TIMELY PREFETCHES:          0 LATE PREFETCHES: 0 DROPPED PREFETCHES: 0
L1D PREFETCHES SAME FILL-ORIGIN LEVEL: 0 DIFFERENT FILL-ORIGIN LEVEL: 0
L1D AVERAGE MISS LATENCY: 85.574 cycles
L1D RQ	ACCESS:    6669690	FORWARD:          0	MERGED:    1573799	TO_CACHE:    5095675
L1D WQ	ACCESS:     102549	FORWARD:        216	MERGED:          0	TO_CACHE:     102549

L1D UNIQUE REGIONS ACCESSED: 0
L1D REGIONS CONFLICTS: 0
L1D Cross Page Prefetch Requests: 0
L1D Same Page Prefetch Requests: 0
L1D ROI Sum of L1D PQ occupancy: 0
L1D PREFETCHES PUSHED FROM L2C: 0
L1I TOTAL     ACCESS:    3769194  HIT:    3769194  MISS:          0  HIT %:        100  MISS %:          0   MPKI: 0
L1I LOAD      ACCESS:    3769194  HIT:    3769194  MISS:          0  HIT %:        100  MISS %:          0   MPKI: 0
L1I PREFETCH  REQUESTED:          0  ISSUED:          0  USEFUL:          0  USELESS:          0
L1I USEFUL LOAD PREFETCHES:          0 PREFETCH ISSUED TO LOWER LEVEL:          0  ACCURACY: -nan
L1I TIMELY PREFETCHES:          0 LATE PREFETCHES: 0 DROPPED PREFETCHES: 0
L1I PREFETCHES SAME FILL-ORIGIN LEVEL: 0 DIFFERENT FILL-ORIGIN LEVEL: 0
L1I AVERAGE MISS LATENCY: -nan cycles
L1I RQ	ACCESS:    6824768	FORWARD:          0	MERGED:    3055576	TO_CACHE:    3769192

BTB TOTAL     ACCESS:    4933985  HIT:    4933980  MISS:          5  HIT %:    99.9999  MISS %: 0.000101338   MPKI: 0.0002
BTB BRANCH_DIRECT_JUMP	ACCESS:          0  HIT:          0  MISS:          0
BTB BRANCH_INDIRECT	ACCESS:          0  HIT:          0  MISS:          0
BTB BRANCH_CONDITIONAL	ACCESS:    4933985  HIT:    4933980  MISS:          5
BTB BRANCH_DIRECT_CALL	ACCESS:          0  HIT:          0  MISS:          0
BTB BRANCH_INDIRECT_CALL	ACCESS:          0  HIT:          0  MISS:          0
BTB BRANCH_RETURN	ACCESS:          0  HIT:          0  MISS:          0
BTB BRANCH_OTHER ACCESS:          0  HIT:          0  MISS:          0

L2C TOTAL     ACCESS:    1873133  HIT:     615182  MISS:    1257951  HIT %:    32.8424  MISS %:    67.1576   MPKI: 50.318
L2C LOAD      ACCESS:    1784046  HIT:     526421  MISS:    1257625  HIT %:    29.5071  MISS %:    70.4929   MPKI: 50.305
L2C DATA LOAD MPKI: 50.305
L2C INSTRUCTION LOAD MPKI: 0
L2C WRITEBACK ACCESS:      87347  HIT:      87325  MISS:         22  HIT %:    99.9748  MISS %:  0.0251869   MPKI: 0.00088
L2C LOAD TRANSLATION ACCESS:       1740  HIT:       1436  MISS:        304  HIT %:    82.5287  MISS %:    17.4713   MPKI: 0.01216
L2C PREFETCH  REQUESTED:          0  ISSUED:          0  USEFUL:          0  USELESS:          0
L2C USEFUL LOAD PREFETCHES:          0 PREFETCH ISSUED TO LOWER LEVEL:          0  ACCURACY: -nan
L2C TIMELY PREFETCHES:          0 LATE PREFETCHES: 0 DROPPED PREFETCHES: 0
L2C PREFETCHES SAME FILL-ORIGIN LEVEL: 0 DIFFERENT FILL-ORIGIN LEVEL: 0
L2C AVERAGE MISS LATENCY: 99.7886 cycles
L2C RQ	ACCESS:    1785787	FORWARD:          0	MERGED:          0	TO_CACHE:    1785787
L2C WQ	ACCESS:      87347	FORWARD:          0	MERGED:          0	TO_CACHE:      87347

L2C Instructions Evicting Data 0
L2C Translations Evicting Data 304
L2C Data Evicting Data 1257320
L2C Instructions Evicting Instructions 0
L2C Translations Evicting Instructions 0
L2C Data Evicting Instructions 0
L2C Instructions Evicting Translations 0
L2C Translations Evicting Translations 0
L2C Data Evicting Translations 305
L2C Dense regions hint from L2: 0
PSCL5 TOTAL     ACCESS:       1740  HIT:       1740  MISS:          0  HIT %:        100  MISS %:          0   MPKI: 0
PSCL5 LOAD TRANSLATION ACCESS:       1740  HIT:       1740  MISS:          0  HIT %:        100  MISS %:          0   MPKI: 0
PSCL5 PREFETCH  REQUESTED:          0  ISSUED:          0  USEFUL:          0  USELESS:          0
PSCL5 USEFUL LOAD PREFETCHES:          0 PREFETCH ISSUED TO LOWER LEVEL:          0  ACCURACY: -nan
PSCL5 TIMELY PREFETCHES:          0 LATE PREFETCHES: 0 DROPPED PREFETCHES: 0
PSCL5 PREFETCHES SAME FILL-ORIGIN LEVEL: 0 DIFFERENT FILL-ORIGIN LEVEL: 0

PSCL4 TOTAL     ACCESS:       1740  HIT:       1740  MISS:          0  HIT %:        100  MISS %:          0   MPKI: 0
PSCL4 LOAD TRANSLATION ACCESS:       1740  HIT:       1740  MISS:          0  HIT %:        100  MISS %:          0   MPKI: 0
PSCL4 PREFETCH  REQUESTED:          0  ISSUED:          0  USEFUL:          0  USELESS:          0
PSCL4 USEFUL LOAD PREFETCHES:          0 PREFETCH ISSUED TO LOWER LEVEL:          0  ACCURACY: -nan
PSCL4 TIMELY PREFETCHES:          0 LATE PREFETCHES: 0 DROPPED PREFETCHES: 0
PSCL4 PREFETCHES SAME FILL-ORIGIN LEVEL: 0 DIFFERENT FILL-ORIGIN LEVEL: 0

PSCL3 TOTAL     ACCESS:       1740  HIT:       1740  MISS:          0  HIT %:        100  MISS %:          0   MPKI: 0
PSCL3 LOAD TRANSLATION ACCESS:       1740  HIT:       1740  MISS:          0  HIT %:        100  MISS %:          0   MPKI: 0
PSCL3 PREFETCH  REQUESTED:          0  ISSUED:          0  USEFUL:          0  USELESS:          0
PSCL3 USEFUL LOAD PREFETCHES:          0 PREFETCH ISSUED TO LOWER LEVEL:          0  ACCURACY: -nan
PSCL3 TIMELY PREFETCHES:          0 LATE PREFETCHES: 0 DROPPED PREFETCHES: 0
PSCL3 PREFETCHES SAME FILL-ORIGIN LEVEL: 0 DIFFERENT FILL-ORIGIN LEVEL: 0

PSCL2 TOTAL     ACCESS:       1740  HIT:       1736  MISS:          4  HIT %:    99.7701  MISS %:   0.229885   MPKI: 0.00016
PSCL2 LOAD TRANSLATION ACCESS:       1740  HIT:       1736  MISS:          4  HIT %:    99.7701  MISS %:   0.229885   MPKI: 0.00016
PSCL2 PREFETCH  REQUESTED:          0  ISSUED:          0  USEFUL:          0  USELESS:          0
PSCL2 USEFUL LOAD PREFETCHES:          0 PREFETCH ISSUED TO LOWER LEVEL:          0  ACCURACY: -nan
PSCL2 TIMELY PREFETCHES:          0 LATE PREFETCHES: 0 DROPPED PREFETCHES: 0
PSCL2 PREFETCHES SAME FILL-ORIGIN LEVEL: 0 DIFFERENT FILL-ORIGIN LEVEL: 0

LLC TOTAL     ACCESS:    1345033  HIT:     793543  MISS:     551490  HIT %:     58.998  MISS %:     41.002   MPKI: 22.0596
LLC LOAD      ACCESS:    1257625  HIT:     706536  MISS:     551089  HIT %:    56.1802  MISS %:    43.8198   MPKI: 22.0436
LLC WRITEBACK ACCESS:      87104  HIT:      86925  MISS:        179  HIT %:    99.7945  MISS %:   0.205501   MPKI: 0.00716
LLC LOAD TRANSLATION ACCESS:        304  HIT:         82  MISS:        222  HIT %:    26.9737  MISS %:    73.0263   MPKI: 0.00888
LLC PREFETCH  REQUESTED:          0  ISSUED:          0  USEFUL:          0  USELESS:          0
LLC USEFUL LOAD PREFETCHES:          0 PREFETCH ISSUED TO LOWER LEVEL:          0  ACCURACY: -nan
LLC TIMELY PREFETCHES:          0 LATE PREFETCHES: 0 DROPPED PREFETCHES: 0
LLC PREFETCHES SAME FILL-ORIGIN LEVEL: 0 DIFFERENT FILL-ORIGIN LEVEL: 0
LLC AVERAGE MISS LATENCY: 159.088 cycles
LLC RQ	ACCESS:    1257930	FORWARD:          0	MERGED:          0	TO_CACHE:    1257930
LLC WQ	ACCESS:      87104	FORWARD:          0	MERGED:          0	TO_CACHE:      87104

LLC Dense regions hint to LLC: 0

RAW hits: 13270
Loads Generated: 6682960
Loads sent to L1D: 6669690
Stores Generated: 102548
Stores sent to L1D: 102549
Major fault: 0 Minor fault: 4418
Allocated PAGES: 4418

DRAM Statistics
 CHANNEL 0
 RQ ROW_BUFFER_HIT:     103644  ROW_BUFFER_MISS:     447666
 DBUS_CONGESTED:         78
 WQ ROW_BUFFER_HIT:      30491  ROW_BUFFER_MISS:      53115  FULL:          0

 AVG_CONGESTED_CYCLE: 4
 All warmup complete: 2
Channel 0 Bank busy for read cycles: 0
Channel 0 Bank busy for write cycles: 0
Channel 0
Rank 0
0banks busy for read cycles: 50563512
0banks busy for write cycles: 62330
1banks busy for read cycles: 36833874
1banks busy for write cycles: 11395588
2banks busy for read cycles: 11065516
2banks busy for write cycles: 2059439
3banks busy for read cycles: 3315319
3banks busy for write cycles: 335029
4banks busy for read cycles: 718893
4banks busy for write cycles: 47544
5banks busy for read cycles: 98024
5banks busy for write cycles: 6579
6banks busy for read cycles: 8904
6banks busy for write cycles: 469
7banks busy for read cycles: 371
7banks busy for write cycles: 0
8banks busy for read cycles: 0
8banks busy for write cycles: 0

CPU 0 Branch Prediction Accuracy: 92.3083% MPKI: 15.2433 Average ROB Occupancy at Mispredict: 39.5164
Branch types
NOT_BRANCH: 20045284 80.1811%
BRANCH_DIRECT_JUMP: 0 0%
BRANCH_INDIRECT: 0 0%
BRANCH_CONDITIONAL: 4954430 19.8177%
BRANCH_DIRECT_CALL: 0 0%
BRANCH_INDIRECT_CALL: 0 0%
BRANCH_RETURN: 0 0%
BRANCH_OTHER: 0 0%

DRAM PAGES: 1048576
Allocated PAGES: 4418
