
*** ChampSim Multicore Out-of-Order Simulator ***

Warmup Instructions: 25000000
Simulation Instructions: 25000000
Number of CPUs: 1
LLC sets: 2048
LLC ways: 16
Off-chip DRAM Size: 4096 MB Channels: 1 Width: 64-bit Data Rate: 6400 MT/s
CPU 0 runs ../traces/cc-6.trace.gz
.gz
CPU 0 Bimodal branch predictor
BTB has LRU replacement policy
ITLB has LRU replacement policy
DTLB has LRU replacement policy
STLB has LRU replacement policy
L1I has LRU replacement policy
L1D has LRU replacement policy
L2C has LRU replacement policy
LLC has LRU replacement policy
Heartbeat CPU 0 instructions: 10000000 cycles: 2976720 heartbeat IPC: 3.3594 cumulative IPC: 3.3594 (Simulation time: 0 hr 0 min 10 sec) 
Heartbeat CPU 0 instructions: 20000002 cycles: 5917825 heartbeat IPC: 3.40008 cumulative IPC: 3.37962 (Simulation time: 0 hr 0 min 23 sec) 

Warmup complete CPU 0 instructions: 25000001 cycles: 7393632 (Simulation time: 0 hr 0 min 29 sec) 

Heartbeat CPU 0 instructions: 30000001 cycles: 40453768 heartbeat IPC: 0.289553 cumulative IPC: 0.15124 (Simulation time: 0 hr 0 min 39 sec) 
Heartbeat CPU 0 instructions: 40000000 cycles: 103920944 heartbeat IPC: 0.157562 cumulative IPC: 0.155396 (Simulation time: 0 hr 0 min 59 sec) 
Heartbeat CPU 0 instructions: 50000000 cycles: 167413888 heartbeat IPC: 0.157498 cumulative IPC: 0.15623 (Simulation time: 0 hr 1 min 20 sec) 
Finished CPU 0 instructions: 25000000 cycles: 160020257 cumulative IPC: 0.15623 (Simulation time: 0 hr 1 min 20 sec) 

ChampSim completed all CPUs

Region of Interest Statistics

CPU 0 cumulative IPC: 0.15623 instructions: 25000000 cycles: 160020257
ITLB TOTAL     ACCESS:    4286547  HIT:    4286547  MISS:          0  HIT %:        100  MISS %:          0   MPKI: 0
ITLB LOAD TRANSLATION ACCESS:    4286547  HIT:    4286547  MISS:          0  HIT %:        100  MISS %:          0   MPKI: 0
ITLB PREFETCH  REQUESTED:          0  ISSUED:          0  USEFUL:          0  USELESS:          0
ITLB USEFUL LOAD PREFETCHES:          0 PREFETCH ISSUED TO LOWER LEVEL:          0  ACCURACY: -nan
ITLB TIMELY PREFETCHES:          0 LATE PREFETCHES: 0 DROPPED PREFETCHES: 0
ITLB PREFETCHES SAME FILL-ORIGIN LEVEL: 0 DIFFERENT FILL-ORIGIN LEVEL: 0
ITLB AVERAGE MISS LATENCY: -nan cycles
ITLB RQ	ACCESS:    4349800	FORWARD:          0	MERGED:      63254	TO_CACHE:    4286546

DTLB TOTAL     ACCESS:    5350337  HIT:    4022859  MISS:    1327478  HIT %:    75.1889  MISS %:    24.8111   MPKI: 53.0991
DTLB LOAD TRANSLATION ACCESS:    5350337  HIT:    4022859  MISS:    1327478  HIT %:    75.1889  MISS %:    24.8111   MPKI: 53.0991
DTLB PREFETCH  REQUESTED:          0  ISSUED:          0  USEFUL:          0  USELESS:          0
DTLB USEFUL LOAD PREFETCHES:          0 PREFETCH ISSUED TO LOWER LEVEL:          0  ACCURACY: -nan
DTLB TIMELY PREFETCHES:          0 LATE PREFETCHES: 0 DROPPED PREFETCHES: 0
DTLB PREFETCHES SAME FILL-ORIGIN LEVEL: 0 DIFFERENT FILL-ORIGIN LEVEL: 0
DTLB AVERAGE MISS LATENCY: 9.63258 cycles
DTLB RQ	ACCESS:    5584402	FORWARD:          0	MERGED:     229648	TO_CACHE:    5354754

STLB TOTAL     ACCESS:    1327478  HIT:    1325532  MISS:       1946  HIT %:    99.8534  MISS %:   0.146594   MPKI: 0.07784
STLB LOAD TRANSLATION ACCESS:    1327478  HIT:    1325532  MISS:       1946  HIT %:    99.8534  MISS %:   0.146594   MPKI: 0.07784
STLB PREFETCH  REQUESTED:          0  ISSUED:          0  USEFUL:          0  USELESS:          0
STLB USEFUL LOAD PREFETCHES:          0 PREFETCH ISSUED TO LOWER LEVEL:          0  ACCURACY: -nan
STLB TIMELY PREFETCHES:          0 LATE PREFETCHES: 0 DROPPED PREFETCHES: 0
STLB PREFETCHES SAME FILL-ORIGIN LEVEL: 0 DIFFERENT FILL-ORIGIN LEVEL: 0
STLB AVERAGE MISS LATENCY: 138.206 cycles
STLB RQ	ACCESS:    1327478	FORWARD:          0	MERGED:          0	TO_CACHE:    1327478

STLB Hit, L1D data hit: 0
STLB Hit, L2C data hit: 0
STLB Hit, LLC data hit: 0
STLB Hit, LLC data miss: 0
STLB STLB hints to L2: 0
L1D TOTAL     ACCESS:    5459049  HIT:    3479949  MISS:    1979100  HIT %:    63.7464  MISS %:    36.2536   MPKI: 79.164
L1D LOAD      ACCESS:    5354578  HIT:    3375478  MISS:    1979100  HIT %:    63.0391  MISS %:    36.9609   MPKI: 79.164
L1D RFO       ACCESS:     104471  HIT:     104471  MISS:          0  HIT %:        100  MISS %:          0   MPKI: 0
L1D PREFETCH  REQUESTED:          0  ISSUED:          0  USEFUL:          0  USELESS:          0
L1D USEFUL LOAD PREFETCHES:          0 PREFETCH ISSUED TO LOWER LEVEL:          0  ACCURACY: -nan
L1D TIMELY PREFETCHES:          0 LATE PREFETCHES: 0 DROPPED PREFETCHES: 0
L1D PREFETCHES SAME FILL-ORIGIN LEVEL: 0 DIFFERENT FILL-ORIGIN LEVEL: 0
L1D AVERAGE MISS LATENCY: 84.7695 cycles
L1D RQ	ACCESS:    7029116	FORWARD:          0	MERGED:    1549001	TO_CACHE:    5479931
L1D WQ	ACCESS:     104471	FORWARD:        184	MERGED:          0	TO_CACHE:     104471

L1D UNIQUE REGIONS ACCESSED: 0
L1D REGIONS CONFLICTS: 0
L1D Cross Page Prefetch Requests: 0
L1D Same Page Prefetch Requests: 0
L1D ROI Sum of L1D PQ occupancy: 0
L1D PREFETCHES PUSHED FROM L2C: 0
L1I TOTAL     ACCESS:    4349801  HIT:    4349801  MISS:          0  HIT %:        100  MISS %:          0   MPKI: 0
L1I LOAD      ACCESS:    4349801  HIT:    4349801  MISS:          0  HIT %:        100  MISS %:          0   MPKI: 0
L1I PREFETCH  REQUESTED:          0  ISSUED:          0  USEFUL:          0  USELESS:          0
L1I USEFUL LOAD PREFETCHES:          0 PREFETCH ISSUED TO LOWER LEVEL:          0  ACCURACY: -nan
L1I TIMELY PREFETCHES:          0 LATE PREFETCHES: 0 DROPPED PREFETCHES: 0
L1I PREFETCHES SAME FILL-ORIGIN LEVEL: 0 DIFFERENT FILL-ORIGIN LEVEL: 0
L1I AVERAGE MISS LATENCY: -nan cycles
L1I RQ	ACCESS:    7128857	FORWARD:          0	MERGED:    2779057	TO_CACHE:    4349800

BTB TOTAL     ACCESS:    5090116  HIT:    5090111  MISS:          5  HIT %:    99.9999  MISS %: 9.82296e-05   MPKI: 0.0002
BTB BRANCH_DIRECT_JUMP	ACCESS:          0  HIT:          0  MISS:          0
BTB BRANCH_INDIRECT	ACCESS:          0  HIT:          0  MISS:          0
BTB BRANCH_CONDITIONAL	ACCESS:    5090116  HIT:    5090111  MISS:          5
BTB BRANCH_DIRECT_CALL	ACCESS:          0  HIT:          0  MISS:          0
BTB BRANCH_INDIRECT_CALL	ACCESS:          0  HIT:          0  MISS:          0
BTB BRANCH_RETURN	ACCESS:          0  HIT:          0  MISS:          0
BTB BRANCH_OTHER ACCESS:          0  HIT:          0  MISS:          0

L2C TOTAL     ACCESS:    2067888  HIT:     697941  MISS:    1369947  HIT %:    33.7514  MISS %:    66.2486   MPKI: 54.7979
L2C LOAD      ACCESS:    1979100  HIT:     609509  MISS:    1369591  HIT %:    30.7973  MISS %:    69.2027   MPKI: 54.7836
L2C DATA LOAD MPKI: 54.7836
L2C INSTRUCTION LOAD MPKI: 0
L2C WRITEBACK ACCESS:      86842  HIT:      86823  MISS:         19  HIT %:    99.9781  MISS %:  0.0218788   MPKI: 0.00076
L2C LOAD TRANSLATION ACCESS:       1946  HIT:       1609  MISS:        337  HIT %:    82.6824  MISS %:    17.3176   MPKI: 0.01348
L2C PREFETCH  REQUESTED:          0  ISSUED:          0  USEFUL:          0  USELESS:          0
L2C USEFUL LOAD PREFETCHES:          0 PREFETCH ISSUED TO LOWER LEVEL:          0  ACCURACY: -nan
L2C TIMELY PREFETCHES:          0 LATE PREFETCHES: 0 DROPPED PREFETCHES: 0
L2C PREFETCHES SAME FILL-ORIGIN LEVEL: 0 DIFFERENT FILL-ORIGIN LEVEL: 0
L2C AVERAGE MISS LATENCY: 100.584 cycles
L2C RQ	ACCESS:    1981046	FORWARD:          0	MERGED:          0	TO_CACHE:    1981046
L2C WQ	ACCESS:      86842	FORWARD:          0	MERGED:          0	TO_CACHE:      86842

L2C Instructions Evicting Data 0
L2C Translations Evicting Data 337
L2C Data Evicting Data 1369253
L2C Instructions Evicting Instructions 0
L2C Translations Evicting Instructions 0
L2C Data Evicting Instructions 0
L2C Instructions Evicting Translations 0
L2C Translations Evicting Translations 0
L2C Data Evicting Translations 338
L2C Dense regions hint from L2: 0
PSCL5 TOTAL     ACCESS:       1946  HIT:       1946  MISS:          0  HIT %:        100  MISS %:          0   MPKI: 0
PSCL5 LOAD TRANSLATION ACCESS:       1946  HIT:       1946  MISS:          0  HIT %:        100  MISS %:          0   MPKI: 0
PSCL5 PREFETCH  REQUESTED:          0  ISSUED:          0  USEFUL:          0  USELESS:          0
PSCL5 USEFUL LOAD PREFETCHES:          0 PREFETCH ISSUED TO LOWER LEVEL:          0  ACCURACY: -nan
PSCL5 TIMELY PREFETCHES:          0 LATE PREFETCHES: 0 DROPPED PREFETCHES: 0
PSCL5 PREFETCHES SAME FILL-ORIGIN LEVEL: 0 DIFFERENT FILL-ORIGIN LEVEL: 0

PSCL4 TOTAL     ACCESS:       1946  HIT:       1946  MISS:          0  HIT %:        100  MISS %:          0   MPKI: 0
PSCL4 LOAD TRANSLATION ACCESS:       1946  HIT:       1946  MISS:          0  HIT %:        100  MISS %:          0   MPKI: 0
PSCL4 PREFETCH  REQUESTED:          0  ISSUED:          0  USEFUL:          0  USELESS:          0
PSCL4 USEFUL LOAD PREFETCHES:          0 PREFETCH ISSUED TO LOWER LEVEL:          0  ACCURACY: -nan
PSCL4 TIMELY PREFETCHES:          0 LATE PREFETCHES: 0 DROPPED PREFETCHES: 0
PSCL4 PREFETCHES SAME FILL-ORIGIN LEVEL: 0 DIFFERENT FILL-ORIGIN LEVEL: 0

PSCL3 TOTAL     ACCESS:       1946  HIT:       1946  MISS:          0  HIT %:        100  MISS %:          0   MPKI: 0
PSCL3 LOAD TRANSLATION ACCESS:       1946  HIT:       1946  MISS:          0  HIT %:        100  MISS %:          0   MPKI: 0
PSCL3 PREFETCH  REQUESTED:          0  ISSUED:          0  USEFUL:          0  USELESS:          0
PSCL3 USEFUL LOAD PREFETCHES:          0 PREFETCH ISSUED TO LOWER LEVEL:          0  ACCURACY: -nan
PSCL3 TIMELY PREFETCHES:          0 LATE PREFETCHES: 0 DROPPED PREFETCHES: 0
PSCL3 PREFETCHES SAME FILL-ORIGIN LEVEL: 0 DIFFERENT FILL-ORIGIN LEVEL: 0

PSCL2 TOTAL     ACCESS:       1946  HIT:       1942  MISS:          4  HIT %:    99.7945  MISS %:    0.20555   MPKI: 0.00016
PSCL2 LOAD TRANSLATION ACCESS:       1946  HIT:       1942  MISS:          4  HIT %:    99.7945  MISS %:    0.20555   MPKI: 0.00016
PSCL2 PREFETCH  REQUESTED:          0  ISSUED:          0  USEFUL:          0  USELESS:          0
PSCL2 USEFUL LOAD PREFETCHES:          0 PREFETCH ISSUED TO LOWER LEVEL:          0  ACCURACY: -nan
PSCL2 TIMELY PREFETCHES:          0 LATE PREFETCHES: 0 DROPPED PREFETCHES: 0
PSCL2 PREFETCHES SAME FILL-ORIGIN LEVEL: 0 DIFFERENT FILL-ORIGIN LEVEL: 0

LLC TOTAL     ACCESS:    1456497  HIT:     858320  MISS:     598177  HIT %:    58.9304  MISS %:    41.0696   MPKI: 23.9271
LLC LOAD      ACCESS:    1369591  HIT:     771873  MISS:     597718  HIT %:    56.3579  MISS %:    43.6421   MPKI: 23.9087
LLC WRITEBACK ACCESS:      86569  HIT:      86357  MISS:        212  HIT %:    99.7551  MISS %:   0.244891   MPKI: 0.00848
LLC LOAD TRANSLATION ACCESS:        337  HIT:         90  MISS:        247  HIT %:    26.7062  MISS %:    73.2938   MPKI: 0.00988
LLC PREFETCH  REQUESTED:          0  ISSUED:          0  USEFUL:          0  USELESS:          0
LLC USEFUL LOAD PREFETCHES:          0 PREFETCH ISSUED TO LOWER LEVEL:          0  ACCURACY: -nan
LLC TIMELY PREFETCHES:          0 LATE PREFETCHES: 0 DROPPED PREFETCHES: 0
LLC PREFETCHES SAME FILL-ORIGIN LEVEL: 0 DIFFERENT FILL-ORIGIN LEVEL: 0
LLC AVERAGE MISS LATENCY: 161.579 cycles
LLC RQ	ACCESS:    1369928	FORWARD:          0	MERGED:          0	TO_CACHE:    1369928
LLC WQ	ACCESS:      86569	FORWARD:          0	MERGED:          0	TO_CACHE:      86569

LLC Dense regions hint to LLC: 0

RAW hits: 13140
Loads Generated: 7042257
Loads sent to L1D: 7029116
Stores Generated: 104471
Stores sent to L1D: 104471
Major fault: 0 Minor fault: 4763
Allocated PAGES: 4763

DRAM Statistics
 CHANNEL 0
 RQ ROW_BUFFER_HIT:      86500  ROW_BUFFER_MISS:     511464
 DBUS_CONGESTED:         32
 WQ ROW_BUFFER_HIT:      27586  ROW_BUFFER_MISS:      55656  FULL:          0

 AVG_CONGESTED_CYCLE: 4
 All warmup complete: 2
Channel 0 Bank busy for read cycles: 0
Channel 0 Bank busy for write cycles: 0
Channel 0
Rank 0
0banks busy for read cycles: 82263100
0banks busy for write cycles: 68382
1banks busy for read cycles: 50216880
1banks busy for write cycles: 12303880
2banks busy for read cycles: 10365509
2banks busy for write cycles: 1447862
3banks busy for read cycles: 2550391
3banks busy for write cycles: 185022
4banks busy for read cycles: 522946
4banks busy for write cycles: 23843
5banks busy for read cycles: 64652
5banks busy for write cycles: 2178
6banks busy for read cycles: 5104
6banks busy for write cycles: 459
7banks busy for read cycles: 6
7banks busy for write cycles: 44
8banks busy for read cycles: 0
8banks busy for write cycles: 0

CPU 0 Branch Prediction Accuracy: 85.9223% MPKI: 28.803 Average ROB Occupancy at Mispredict: 16.1284
Branch types
NOT_BRANCH: 19884646 79.5386%
BRANCH_DIRECT_JUMP: 0 0%
BRANCH_INDIRECT: 0 0%
BRANCH_CONDITIONAL: 5115001 20.46%
BRANCH_DIRECT_CALL: 0 0%
BRANCH_INDIRECT_CALL: 0 0%
BRANCH_RETURN: 0 0%
BRANCH_OTHER: 0 0%

DRAM PAGES: 1048576
Allocated PAGES: 4763
