
*** ChampSim Multicore Out-of-Order Simulator ***

Warmup Instructions: 50000000
Simulation Instructions: 50000000
Number of CPUs: 1
LLC sets: 2048
LLC ways: 16
Off-chip DRAM Size: 4096 MB Channels: 1 Width: 64-bit Data Rate: 6400 MT/s
CPU 0 runs ../Ligra/ligra_BC.com-lj.ungraph.gcc_6.3.0_O3.drop_26750M.length_250M.champsimtrace.xz
.xz
CPU 0 Bimodal branch predictor
BTB has LRU replacement policy
ITLB has LRU replacement policy
DTLB has LRU replacement policy
STLB has LRU replacement policy
L1I has LRU replacement policy
CPU 0 L1D - Pythia Preftecher 
L1D has LRU replacement policy
L2C has LRU replacement policy
LLC has LRU replacement policy
Heartbeat CPU 0 instructions: 10000003 cycles: 3333411 heartbeat IPC: 2.99993 cumulative IPC: 2.99993 (Simulation time: 0 hr 0 min 32 sec) 
Heartbeat CPU 0 instructions: 20000000 cycles: 6666742 heartbeat IPC: 3 cumulative IPC: 2.99997 (Simulation time: 0 hr 1 min 7 sec) 
Heartbeat CPU 0 instructions: 30000003 cycles: 9999734 heartbeat IPC: 3.00031 cumulative IPC: 3.00008 (Simulation time: 0 hr 1 min 43 sec) 
Heartbeat CPU 0 instructions: 40000003 cycles: 13331766 heartbeat IPC: 3.00117 cumulative IPC: 3.00035 (Simulation time: 0 hr 2 min 20 sec) 
Heartbeat CPU 0 instructions: 50000000 cycles: 16663994 heartbeat IPC: 3.00099 cumulative IPC: 3.00048 (Simulation time: 0 hr 2 min 54 sec) 

Warmup complete CPU 0 instructions: 50000003 cycles: 16663995 (Simulation time: 0 hr 2 min 54 sec) 

Heartbeat CPU 0 instructions: 60000000 cycles: 43109909 heartbeat IPC: 0.37813 cumulative IPC: 0.37813 (Simulation time: 0 hr 3 min 28 sec) 
Heartbeat CPU 0 instructions: 70000000 cycles: 68837454 heartbeat IPC: 0.388688 cumulative IPC: 0.383337 (Simulation time: 0 hr 4 min 0 sec) 
Heartbeat CPU 0 instructions: 80000000 cycles: 92015426 heartbeat IPC: 0.431444 cumulative IPC: 0.398134 (Simulation time: 0 hr 4 min 32 sec) 
Heartbeat CPU 0 instructions: 90000003 cycles: 114903965 heartbeat IPC: 0.4369 cumulative IPC: 0.407166 (Simulation time: 0 hr 5 min 13 sec) 
Heartbeat CPU 0 instructions: 100000001 cycles: 137301240 heartbeat IPC: 0.446483 cumulative IPC: 0.414466 (Simulation time: 0 hr 5 min 58 sec) 
Finished CPU 0 instructions: 50000002 cycles: 120637246 cumulative IPC: 0.414466 (Simulation time: 0 hr 5 min 58 sec) 

ChampSim completed all CPUs

Region of Interest Statistics

CPU 0 cumulative IPC: 0.414466 instructions: 50000002 cycles: 120637246
ITLB TOTAL     ACCESS:    7845835  HIT:    7845834  MISS:          1  HIT %:        100  MISS %: 1.27456e-05   MPKI: 2e-05
ITLB LOAD TRANSLATION ACCESS:    7845835  HIT:    7845834  MISS:          1  HIT %:        100  MISS %: 1.27456e-05   MPKI: 2e-05
ITLB PREFETCH  REQUESTED:          0  ISSUED:          0  USEFUL:          0  USELESS:          0
ITLB USEFUL LOAD PREFETCHES:          0 PREFETCH ISSUED TO LOWER LEVEL:          0  ACCURACY: -nan
ITLB TIMELY PREFETCHES:          0 LATE PREFETCHES: 0 DROPPED PREFETCHES: 0
ITLB PREFETCHES SAME FILL-ORIGIN LEVEL: 0 DIFFERENT FILL-ORIGIN LEVEL: 0
ITLB AVERAGE MISS LATENCY: 320 cycles
ITLB RQ	ACCESS:    7845855	FORWARD:          0	MERGED:         21	TO_CACHE:    7845834

DTLB TOTAL     ACCESS:    8991279  HIT:    8964255  MISS:      27024  HIT %:    99.6994  MISS %:   0.300558   MPKI: 0.54048
DTLB LOAD TRANSLATION ACCESS:    8991279  HIT:    8964255  MISS:      27024  HIT %:    99.6994  MISS %:   0.300558   MPKI: 0.54048
DTLB PREFETCH  REQUESTED:          0  ISSUED:          0  USEFUL:          0  USELESS:          0
DTLB USEFUL LOAD PREFETCHES:          0 PREFETCH ISSUED TO LOWER LEVEL:          0  ACCURACY: -nan
DTLB TIMELY PREFETCHES:          0 LATE PREFETCHES: 0 DROPPED PREFETCHES: 0
DTLB PREFETCHES SAME FILL-ORIGIN LEVEL: 0 DIFFERENT FILL-ORIGIN LEVEL: 0
DTLB AVERAGE MISS LATENCY: 157.192 cycles
DTLB RQ	ACCESS:   12784938	FORWARD:          0	MERGED:    3738032	TO_CACHE:    9046906

STLB TOTAL     ACCESS:    3520639  HIT:    3493796  MISS:      26843  HIT %:    99.2376  MISS %:   0.762447   MPKI: 0.53686
STLB LOAD TRANSLATION ACCESS:      27025  HIT:        182  MISS:      26843  HIT %:   0.673451  MISS %:    99.3265   MPKI: 0.53686
STLB TRANSLATION FROM L1D PREFETCHER ACCESS:    3493614  HIT:    3493614  MISS:          0  HIT %:        100  MISS %:          0   MPKI: 0
STLB PREFETCH  REQUESTED:          0  ISSUED:          0  USEFUL:          0  USELESS:          0
STLB USEFUL LOAD PREFETCHES:          0 PREFETCH ISSUED TO LOWER LEVEL:          0  ACCURACY: -nan
STLB TIMELY PREFETCHES:          0 LATE PREFETCHES: 0 DROPPED PREFETCHES: 0
STLB PREFETCHES SAME FILL-ORIGIN LEVEL: 0 DIFFERENT FILL-ORIGIN LEVEL: 0
STLB AVERAGE MISS LATENCY: 148.667 cycles
STLB RQ	ACCESS:   10620428	FORWARD:          0	MERGED:    7099790	TO_CACHE:    3520638

STLB Hit, L1D data hit: 0
STLB Hit, L2C data hit: 0
STLB Hit, LLC data hit: 0
STLB Hit, LLC data miss: 0
STLB STLB hints to L2: 0
L1D TOTAL     ACCESS:   16563154  HIT:   14899932  MISS:    1663222  HIT %:    89.9583  MISS %:    10.0417   MPKI: 33.2644
L1D LOAD      ACCESS:    4362138  HIT:    3952536  MISS:     409602  HIT %:    90.6101  MISS %:    9.38994   MPKI: 8.19204
L1D RFO       ACCESS:    2615299  HIT:    1930119  MISS:     685180  HIT %:    73.8011  MISS %:    26.1989   MPKI: 13.7036
L1D PREFETCH  ACCESS:    9585717  HIT:    9017277  MISS:     568440  HIT %:    94.0699  MISS %:    5.93007   MPKI: 11.3688
AGUS PREFETCH L1 MISS: 0
L1D PREFETCH  REQUESTED:   23335176  ISSUED:   23308886  USEFUL:     460816  USELESS:     107485
L1D USEFUL LOAD PREFETCHES:     460816 PREFETCH ISSUED TO LOWER LEVEL:     694445  ACCURACY: 66.3575
L1D TIMELY PREFETCHES:     460816 LATE PREFETCHES: 126003 DROPPED PREFETCHES: 0
L1D PREFETCHES SAME FILL-ORIGIN LEVEL: 694445 DIFFERENT FILL-ORIGIN LEVEL: 0
L1D AVERAGE MISS LATENCY: 283.684 cycles
L1D RQ	ACCESS:   10366956	FORWARD:          0	MERGED:    5892605	TO_CACHE:    4474351
L1D WQ	ACCESS:    8310588	FORWARD:          6	MERGED:          1	TO_CACHE:    8310587
L1D PQ	ACCESS:   12715483	FORWARD:          0	MERGED:    2122074	TO_CACHE:   10593403

L1D UNIQUE REGIONS ACCESSED: 0
L1D REGIONS CONFLICTS: 0
L1D Cross Page Prefetch Requests: 0
L1D Same Page Prefetch Requests: 35825298
L1D ROI Sum of L1D PQ occupancy: 160360832
L1D PREFETCHES PUSHED FROM L2C: 0
L1I TOTAL     ACCESS:    7845854  HIT:    7845839  MISS:         15  HIT %:    99.9998  MISS %: 0.000191184   MPKI: 0.0003
L1I LOAD      ACCESS:    7845854  HIT:    7845839  MISS:         15  HIT %:    99.9998  MISS %: 0.000191184   MPKI: 0.0003
L1I PREFETCH  REQUESTED:          0  ISSUED:          0  USEFUL:          0  USELESS:          0
L1I USEFUL LOAD PREFETCHES:          0 PREFETCH ISSUED TO LOWER LEVEL:          0  ACCURACY: -nan
L1I TIMELY PREFETCHES:          0 LATE PREFETCHES: 0 DROPPED PREFETCHES: 0
L1I PREFETCHES SAME FILL-ORIGIN LEVEL: 0 DIFFERENT FILL-ORIGIN LEVEL: 0
L1I AVERAGE MISS LATENCY: 230.2 cycles
L1I RQ	ACCESS:   14259335	FORWARD:          0	MERGED:    6413480	TO_CACHE:    7845855

BTB TOTAL     ACCESS:    8792348  HIT:    8792266  MISS:         82  HIT %:    99.9991  MISS %: 0.000932629   MPKI: 0.00164
BTB BRANCH_DIRECT_JUMP	ACCESS:         44  HIT:         24  MISS:         20
BTB BRANCH_INDIRECT	ACCESS:          0  HIT:          0  MISS:          0
BTB BRANCH_CONDITIONAL	ACCESS:    8792290  HIT:    8792240  MISS:         50
BTB BRANCH_DIRECT_CALL	ACCESS:          6  HIT:          1  MISS:          5
BTB BRANCH_INDIRECT_CALL	ACCESS:          0  HIT:          0  MISS:          0
BTB BRANCH_RETURN	ACCESS:          8  HIT:          1  MISS:          7
BTB BRANCH_OTHER ACCESS:          0  HIT:          0  MISS:          0

L2C TOTAL     ACCESS:    2375551  HIT:     709434  MISS:    1666117  HIT %:     29.864  MISS %:     70.136   MPKI: 33.3223
L2C LOAD      ACCESS:     283614  HIT:         10  MISS:     283604  HIT %: 0.00352592  MISS %:    99.9965   MPKI: 5.67208
L2C DATA LOAD MPKI: 5.67178
L2C INSTRUCTION LOAD MPKI: 0.0003
L2C RFO       ACCESS:     685181  HIT:          3  MISS:     685178  HIT %: 0.000437841  MISS %:    99.9996   MPKI: 13.7036
L2C PREFETCH  ACCESS:     694443  HIT:        546  MISS:     693897  HIT %:  0.0786242  MISS %:    99.9214   MPKI: 13.8779
AGUS PREFETCH L1 MISS: 0
L2C DATA PREFETCH MPKI: 13.8779
L2C INSTRUCTION PREFETCH MPKI: 0
L2C WRITEBACK ACCESS:     685467  HIT:     685463  MISS:          4  HIT %:    99.9994  MISS %: 0.000583544   MPKI: 8e-05
L2C LOAD TRANSLATION ACCESS:      26846  HIT:      23412  MISS:       3434  HIT %:    87.2085  MISS %:    12.7915   MPKI: 0.06868
L2C PREFETCH  REQUESTED:          0  ISSUED:          0  USEFUL:         13  USELESS:     691854
L2C USEFUL LOAD PREFETCHES:         13 PREFETCH ISSUED TO LOWER LEVEL:     693899  ACCURACY: 0.00187347
L2C TIMELY PREFETCHES:         13 LATE PREFETCHES: 0 DROPPED PREFETCHES: 0
L2C PREFETCHES SAME FILL-ORIGIN LEVEL: 0 DIFFERENT FILL-ORIGIN LEVEL: 0
L2C AVERAGE MISS LATENCY: 267.826 cycles
L2C RQ	ACCESS:     995643	FORWARD:          0	MERGED:          0	TO_CACHE:     995643
L2C WQ	ACCESS:     685467	FORWARD:          0	MERGED:          0	TO_CACHE:     685467
L2C PQ	ACCESS:     694445	FORWARD:          0	MERGED:          0	TO_CACHE:     694445

L2C Instructions Evicting Data 15
L2C Translations Evicting Data 3430
L2C Data Evicting Data 1659230
L2C Instructions Evicting Instructions 0
L2C Translations Evicting Instructions 0
L2C Data Evicting Instructions 15
L2C Instructions Evicting Translations 0
L2C Translations Evicting Translations 4
L2C Data Evicting Translations 3419
L2C Dense regions hint from L2: 0
PSCL5 TOTAL     ACCESS:      26843  HIT:      26843  MISS:          0  HIT %:        100  MISS %:          0   MPKI: 0
PSCL5 LOAD TRANSLATION ACCESS:      26843  HIT:      26843  MISS:          0  HIT %:        100  MISS %:          0   MPKI: 0
PSCL5 PREFETCH  REQUESTED:          0  ISSUED:          0  USEFUL:          0  USELESS:          0
PSCL5 USEFUL LOAD PREFETCHES:          0 PREFETCH ISSUED TO LOWER LEVEL:          0  ACCURACY: -nan
PSCL5 TIMELY PREFETCHES:          0 LATE PREFETCHES: 0 DROPPED PREFETCHES: 0
PSCL5 PREFETCHES SAME FILL-ORIGIN LEVEL: 0 DIFFERENT FILL-ORIGIN LEVEL: 0

PSCL4 TOTAL     ACCESS:      26843  HIT:      26843  MISS:          0  HIT %:        100  MISS %:          0   MPKI: 0
PSCL4 LOAD TRANSLATION ACCESS:      26843  HIT:      26843  MISS:          0  HIT %:        100  MISS %:          0   MPKI: 0
PSCL4 PREFETCH  REQUESTED:          0  ISSUED:          0  USEFUL:          0  USELESS:          0
PSCL4 USEFUL LOAD PREFETCHES:          0 PREFETCH ISSUED TO LOWER LEVEL:          0  ACCURACY: -nan
PSCL4 TIMELY PREFETCHES:          0 LATE PREFETCHES: 0 DROPPED PREFETCHES: 0
PSCL4 PREFETCHES SAME FILL-ORIGIN LEVEL: 0 DIFFERENT FILL-ORIGIN LEVEL: 0

PSCL3 TOTAL     ACCESS:      26843  HIT:      26843  MISS:          0  HIT %:        100  MISS %:          0   MPKI: 0
PSCL3 LOAD TRANSLATION ACCESS:      26843  HIT:      26843  MISS:          0  HIT %:        100  MISS %:          0   MPKI: 0
PSCL3 PREFETCH  REQUESTED:          0  ISSUED:          0  USEFUL:          0  USELESS:          0
PSCL3 USEFUL LOAD PREFETCHES:          0 PREFETCH ISSUED TO LOWER LEVEL:          0  ACCURACY: -nan
PSCL3 TIMELY PREFETCHES:          0 LATE PREFETCHES: 0 DROPPED PREFETCHES: 0
PSCL3 PREFETCHES SAME FILL-ORIGIN LEVEL: 0 DIFFERENT FILL-ORIGIN LEVEL: 0

PSCL2 TOTAL     ACCESS:      26843  HIT:      26790  MISS:         53  HIT %:    99.8026  MISS %:   0.197444   MPKI: 0.00106
PSCL2 LOAD TRANSLATION ACCESS:      26843  HIT:      26790  MISS:         53  HIT %:    99.8026  MISS %:   0.197444   MPKI: 0.00106
PSCL2 PREFETCH  REQUESTED:          0  ISSUED:          0  USEFUL:          0  USELESS:          0
PSCL2 USEFUL LOAD PREFETCHES:          0 PREFETCH ISSUED TO LOWER LEVEL:          0  ACCURACY: -nan
PSCL2 TIMELY PREFETCHES:          0 LATE PREFETCHES: 0 DROPPED PREFETCHES: 0
PSCL2 PREFETCHES SAME FILL-ORIGIN LEVEL: 0 DIFFERENT FILL-ORIGIN LEVEL: 0

LLC TOTAL     ACCESS:    2354565  HIT:     688485  MISS:    1666080  HIT %:    29.2404  MISS %:    70.7596   MPKI: 33.3216
LLC LOAD      ACCESS:     283604  HIT:          0  MISS:     283604  HIT %:          0  MISS %:        100   MPKI: 5.67208
LLC RFO       ACCESS:     685179  HIT:          0  MISS:     685179  HIT %:          0  MISS %:        100   MPKI: 13.7036
LLC PREFETCH  ACCESS:     693897  HIT:         39  MISS:     693858  HIT %: 0.00562043  MISS %:    99.9944   MPKI: 13.8772
AGUS PREFETCH L1 MISS: 0
LLC WRITEBACK ACCESS:     688451  HIT:     688446  MISS:          5  HIT %:    99.9993  MISS %: 0.000726268   MPKI: 0.0001
LLC LOAD TRANSLATION ACCESS:       3434  HIT:          0  MISS:       3434  HIT %:          0  MISS %:        100   MPKI: 0.06868
LLC PREFETCH  REQUESTED:          0  ISSUED:          0  USEFUL:          0  USELESS:     702547
LLC USEFUL LOAD PREFETCHES:          0 PREFETCH ISSUED TO LOWER LEVEL:     693860  ACCURACY: 0
LLC TIMELY PREFETCHES:          0 LATE PREFETCHES: 0 DROPPED PREFETCHES: 0
LLC PREFETCHES SAME FILL-ORIGIN LEVEL: 0 DIFFERENT FILL-ORIGIN LEVEL: 0
LLC AVERAGE MISS LATENCY: 236.544 cycles
LLC RQ	ACCESS:     972218	FORWARD:          0	MERGED:          0	TO_CACHE:     972218
LLC WQ	ACCESS:     688451	FORWARD:          0	MERGED:          0	TO_CACHE:     688451
LLC PQ	ACCESS:     693899	FORWARD:          0	MERGED:          0	TO_CACHE:     693899

LLC Dense regions hint to LLC: 0

RAW hits: 20
Loads Generated: 10366976
Loads sent to L1D: 10366956
Stores Generated: 8310597
Stores sent to L1D: 8310588
Major fault: 0 Minor fault: 27049
Allocated PAGES: 27049
CPU 0 L1D nextline prefetcher final stats
 Action = 30 : 8881
 Action = 23 : 29584
 Action = 16 : 92441
 Action = 11 : 129131
 Action = 10 : 224828
 Action = 22 : 27909
 Action = 5 : 1222138
 Action = 4 : 1785018
 Action = 32 : 5675
 Action = -3 : 255800
 Action = 12 : 139790
 Action = -6 : 153081
 Action = 3 : 2139454
 Action = 1 : 5511756
 Action = -1 : 405248
 Action = 0 : 310

DRAM Statistics
 CHANNEL 0
 RQ ROW_BUFFER_HIT:     748767  ROW_BUFFER_MISS:     917310
 DBUS_CONGESTED:        148
 WQ ROW_BUFFER_HIT:     151173  ROW_BUFFER_MISS:     532848  FULL:          0

 AVG_CONGESTED_CYCLE: 6
 All warmup complete: 2
Channel 0 Bank busy for read cycles: 0
Channel 0 Bank busy for write cycles: 0
Channel 0
Rank 0
0banks busy for read cycles: 39663767
0banks busy for write cycles: 63535
1banks busy for read cycles: 20693130
1banks busy for write cycles: 8875338
2banks busy for read cycles: 6543095
2banks busy for write cycles: 1986272
3banks busy for read cycles: 5178387
3banks busy for write cycles: 721040
4banks busy for read cycles: 4863868
4banks busy for write cycles: 290090
5banks busy for read cycles: 5013743
5banks busy for write cycles: 149585
6banks busy for read cycles: 5028076
6banks busy for write cycles: 113452
7banks busy for read cycles: 4615388
7banks busy for write cycles: 745398
8banks busy for read cycles: 3171511
8banks busy for write cycles: 12921572

CPU 0 Branch Prediction Accuracy: 87.8141% MPKI: 21.4311 Average ROB Occupancy at Mispredict: 3.33089
Branch types
NOT_BRANCH: 41206881 82.4138%
BRANCH_DIRECT_JUMP: 44 8.8e-05%
BRANCH_INDIRECT: 0 0%
BRANCH_CONDITIONAL: 8793343 17.5867%
BRANCH_DIRECT_CALL: 6 1.2e-05%
BRANCH_INDIRECT_CALL: 0 0%
BRANCH_RETURN: 8 1.6e-05%
BRANCH_OTHER: 0 0%

DRAM PAGES: 1048576
Allocated PAGES: 27049
