
*** ChampSim Multicore Out-of-Order Simulator ***

Warmup Instructions: 50000000
Simulation Instructions: 50000000
Number of CPUs: 1
LLC sets: 2048
LLC ways: 16
Off-chip DRAM Size: 4096 MB Channels: 1 Width: 64-bit Data Rate: 6400 MT/s
CPU 0 runs ../Ligra/ligra_BC.com-lj.ungraph.gcc_6.3.0_O3.drop_15500M.length_250M.champsimtrace.xz
.xz
CPU 0 Bimodal branch predictor
BTB has LRU replacement policy
ITLB has LRU replacement policy
DTLB has LRU replacement policy
STLB has LRU replacement policy
L1I has LRU replacement policy
L1D has LRU replacement policy
L2C has LRU replacement policy
LLC has LRU replacement policy
Heartbeat CPU 0 instructions: 10000003 cycles: 2666967 heartbeat IPC: 3.74958 cumulative IPC: 3.74958 (Simulation time: 0 hr 0 min 5 sec) 
Heartbeat CPU 0 instructions: 20000000 cycles: 5333632 heartbeat IPC: 3.75 cumulative IPC: 3.74979 (Simulation time: 0 hr 0 min 9 sec) 
Heartbeat CPU 0 instructions: 30000003 cycles: 8000301 heartbeat IPC: 3.75 cumulative IPC: 3.74986 (Simulation time: 0 hr 0 min 14 sec) 
Heartbeat CPU 0 instructions: 40000000 cycles: 10666964 heartbeat IPC: 3.75 cumulative IPC: 3.7499 (Simulation time: 0 hr 0 min 18 sec) 
Heartbeat CPU 0 instructions: 50000003 cycles: 13333632 heartbeat IPC: 3.75 cumulative IPC: 3.74992 (Simulation time: 0 hr 0 min 24 sec) 

Warmup complete CPU 0 instructions: 50000003 cycles: 13333632 (Simulation time: 0 hr 0 min 24 sec) 

Heartbeat CPU 0 instructions: 60000002 cycles: 28491468 heartbeat IPC: 0.659725 cumulative IPC: 0.659725 (Simulation time: 0 hr 0 min 42 sec) 
Heartbeat CPU 0 instructions: 70000001 cycles: 46051796 heartbeat IPC: 0.569465 cumulative IPC: 0.611281 (Simulation time: 0 hr 0 min 58 sec) 
Heartbeat CPU 0 instructions: 80000001 cycles: 65945229 heartbeat IPC: 0.502678 cumulative IPC: 0.570216 (Simulation time: 0 hr 1 min 16 sec) 
Heartbeat CPU 0 instructions: 90000001 cycles: 85935373 heartbeat IPC: 0.500247 cumulative IPC: 0.550951 (Simulation time: 0 hr 1 min 34 sec) 
Heartbeat CPU 0 instructions: 100000001 cycles: 105848333 heartbeat IPC: 0.502186 cumulative IPC: 0.540455 (Simulation time: 0 hr 1 min 52 sec) 
Finished CPU 0 instructions: 50000002 cycles: 92514702 cumulative IPC: 0.540455 (Simulation time: 0 hr 1 min 52 sec) 

ChampSim completed all CPUs

Region of Interest Statistics

CPU 0 cumulative IPC: 0.540455 instructions: 50000002 cycles: 92514702
ITLB TOTAL     ACCESS:    7148274  HIT:    7148274  MISS:          0  HIT %:        100  MISS %:          0   MPKI: 0
ITLB LOAD TRANSLATION ACCESS:    7148274  HIT:    7148274  MISS:          0  HIT %:        100  MISS %:          0   MPKI: 0
ITLB PREFETCH  REQUESTED:          0  ISSUED:          0  USEFUL:          0  USELESS:          0
ITLB USEFUL LOAD PREFETCHES:          0 PREFETCH ISSUED TO LOWER LEVEL:          0  ACCURACY: -nan
ITLB TIMELY PREFETCHES:          0 LATE PREFETCHES: 0 DROPPED PREFETCHES: 0
ITLB PREFETCHES SAME FILL-ORIGIN LEVEL: 0 DIFFERENT FILL-ORIGIN LEVEL: 0
ITLB AVERAGE MISS LATENCY: -nan cycles
ITLB RQ	ACCESS:   10756645	FORWARD:          0	MERGED:    3608371	TO_CACHE:    7148274

DTLB TOTAL     ACCESS:    6792065  HIT:    6771932  MISS:      20133  HIT %:    99.7036  MISS %:   0.296419   MPKI: 0.40266
DTLB LOAD TRANSLATION ACCESS:    6792065  HIT:    6771932  MISS:      20133  HIT %:    99.7036  MISS %:   0.296419   MPKI: 0.40266
DTLB PREFETCH  REQUESTED:          0  ISSUED:          0  USEFUL:          0  USELESS:          0
DTLB USEFUL LOAD PREFETCHES:          0 PREFETCH ISSUED TO LOWER LEVEL:          0  ACCURACY: -nan
DTLB TIMELY PREFETCHES:          0 LATE PREFETCHES: 0 DROPPED PREFETCHES: 0
DTLB PREFETCHES SAME FILL-ORIGIN LEVEL: 0 DIFFERENT FILL-ORIGIN LEVEL: 0
DTLB AVERAGE MISS LATENCY: 154.857 cycles
DTLB RQ	ACCESS:   11356902	FORWARD:          0	MERGED:    4473210	TO_CACHE:    6883692

STLB TOTAL     ACCESS:      20133  HIT:          0  MISS:      20133  HIT %:          0  MISS %:        100   MPKI: 0.40266
STLB LOAD TRANSLATION ACCESS:      20133  HIT:          0  MISS:      20133  HIT %:          0  MISS %:        100   MPKI: 0.40266
STLB PREFETCH  REQUESTED:          0  ISSUED:          0  USEFUL:          0  USELESS:          0
STLB USEFUL LOAD PREFETCHES:          0 PREFETCH ISSUED TO LOWER LEVEL:          0  ACCURACY: -nan
STLB TIMELY PREFETCHES:          0 LATE PREFETCHES: 0 DROPPED PREFETCHES: 0
STLB PREFETCHES SAME FILL-ORIGIN LEVEL: 0 DIFFERENT FILL-ORIGIN LEVEL: 0
STLB AVERAGE MISS LATENCY: 145.857 cycles
STLB RQ	ACCESS:      20133	FORWARD:          0	MERGED:          0	TO_CACHE:      20133

STLB Hit, L1D data hit: 0
STLB Hit, L2C data hit: 0
STLB Hit, LLC data hit: 0
STLB Hit, LLC data miss: 0
STLB STLB hints to L2: 0
L1D TOTAL     ACCESS:    2889620  HIT:    1602553  MISS:    1287067  HIT %:     55.459  MISS %:     44.541   MPKI: 25.7413
L1D LOAD      ACCESS:     875460  HIT:     573652  MISS:     301808  HIT %:    65.5258  MISS %:    34.4742   MPKI: 6.03616
L1D RFO       ACCESS:    2014160  HIT:    1028901  MISS:     985259  HIT %:    51.0834  MISS %:    48.9166   MPKI: 19.7052
L1D PREFETCH  REQUESTED:          0  ISSUED:          0  USEFUL:          0  USELESS:          0
L1D USEFUL LOAD PREFETCHES:          0 PREFETCH ISSUED TO LOWER LEVEL:          0  ACCURACY: -nan
L1D TIMELY PREFETCHES:          0 LATE PREFETCHES: 0 DROPPED PREFETCHES: 0
L1D PREFETCHES SAME FILL-ORIGIN LEVEL: 0 DIFFERENT FILL-ORIGIN LEVEL: 0
L1D AVERAGE MISS LATENCY: 247.732 cycles
L1D RQ	ACCESS:    5316900	FORWARD:          0	MERGED:    3880645	TO_CACHE:    1436255
L1D WQ	ACCESS:    9920647	FORWARD:          0	MERGED:          0	TO_CACHE:    9920647

L1D UNIQUE REGIONS ACCESSED: 0
L1D REGIONS CONFLICTS: 0
L1D Cross Page Prefetch Requests: 0
L1D Same Page Prefetch Requests: 0
L1D ROI Sum of L1D PQ occupancy: 0
L1D PREFETCHES PUSHED FROM L2C: 0
L1I TOTAL     ACCESS:   10756644  HIT:   10756635  MISS:          9  HIT %:    99.9999  MISS %: 8.36692e-05   MPKI: 0.00018
L1I LOAD      ACCESS:   10756644  HIT:   10756635  MISS:          9  HIT %:    99.9999  MISS %: 8.36692e-05   MPKI: 0.00018
L1I PREFETCH  REQUESTED:          0  ISSUED:          0  USEFUL:          0  USELESS:          0
L1I USEFUL LOAD PREFETCHES:          0 PREFETCH ISSUED TO LOWER LEVEL:          0  ACCURACY: -nan
L1I TIMELY PREFETCHES:          0 LATE PREFETCHES: 0 DROPPED PREFETCHES: 0
L1I PREFETCHES SAME FILL-ORIGIN LEVEL: 0 DIFFERENT FILL-ORIGIN LEVEL: 0
L1I AVERAGE MISS LATENCY: 319 cycles
L1I RQ	ACCESS:   15251102	FORWARD:          0	MERGED:    4494457	TO_CACHE:   10756645

BTB TOTAL     ACCESS:    5571318  HIT:    5571270  MISS:         48  HIT %:    99.9991  MISS %: 0.000861556   MPKI: 0.00096
BTB BRANCH_DIRECT_JUMP	ACCESS:         20  HIT:          9  MISS:         11
BTB BRANCH_INDIRECT	ACCESS:          0  HIT:          0  MISS:          0
BTB BRANCH_CONDITIONAL	ACCESS:    5571290  HIT:    5571259  MISS:         31
BTB BRANCH_DIRECT_CALL	ACCESS:          4  HIT:          1  MISS:          3
BTB BRANCH_INDIRECT_CALL	ACCESS:          0  HIT:          0  MISS:          0
BTB BRANCH_RETURN	ACCESS:          4  HIT:          1  MISS:          3
BTB BRANCH_OTHER ACCESS:          0  HIT:          0  MISS:          0

L2C TOTAL     ACCESS:    2292643  HIT:    1002973  MISS:    1289670  HIT %:    43.7475  MISS %:    56.2525   MPKI: 25.7934
L2C LOAD      ACCESS:     301817  HIT:         27  MISS:     301790  HIT %: 0.00894582  MISS %:    99.9911   MPKI: 6.0358
L2C DATA LOAD MPKI: 6.03562
L2C INSTRUCTION LOAD MPKI: 0.00018
L2C RFO       ACCESS:     985258  HIT:          0  MISS:     985258  HIT %:          0  MISS %:        100   MPKI: 19.7052
L2C WRITEBACK ACCESS:     985426  HIT:     985426  MISS:          0  HIT %:        100  MISS %:          0   MPKI: 0
L2C LOAD TRANSLATION ACCESS:      20142  HIT:      17520  MISS:       2622  HIT %:    86.9824  MISS %:    13.0176   MPKI: 0.05244
L2C PREFETCH  REQUESTED:          0  ISSUED:          0  USEFUL:          0  USELESS:          0
L2C USEFUL LOAD PREFETCHES:          0 PREFETCH ISSUED TO LOWER LEVEL:          0  ACCURACY: -nan
L2C TIMELY PREFETCHES:          0 LATE PREFETCHES: 0 DROPPED PREFETCHES: 0
L2C PREFETCHES SAME FILL-ORIGIN LEVEL: 0 DIFFERENT FILL-ORIGIN LEVEL: 0
L2C AVERAGE MISS LATENCY: 232.549 cycles
L2C RQ	ACCESS:    1307217	FORWARD:          0	MERGED:          0	TO_CACHE:    1307217
L2C WQ	ACCESS:     985427	FORWARD:          0	MERGED:          0	TO_CACHE:     985427

L2C Instructions Evicting Data 9
L2C Translations Evicting Data 2621
L2C Data Evicting Data 1284411
L2C Instructions Evicting Instructions 0
L2C Translations Evicting Instructions 0
L2C Data Evicting Instructions 9
L2C Instructions Evicting Translations 0
L2C Translations Evicting Translations 1
L2C Data Evicting Translations 2619
L2C Dense regions hint from L2: 0
PSCL5 TOTAL     ACCESS:      20133  HIT:      20133  MISS:          0  HIT %:        100  MISS %:          0   MPKI: 0
PSCL5 LOAD TRANSLATION ACCESS:      20133  HIT:      20133  MISS:          0  HIT %:        100  MISS %:          0   MPKI: 0
PSCL5 PREFETCH  REQUESTED:          0  ISSUED:          0  USEFUL:          0  USELESS:          0
PSCL5 USEFUL LOAD PREFETCHES:          0 PREFETCH ISSUED TO LOWER LEVEL:          0  ACCURACY: -nan
PSCL5 TIMELY PREFETCHES:          0 LATE PREFETCHES: 0 DROPPED PREFETCHES: 0
PSCL5 PREFETCHES SAME FILL-ORIGIN LEVEL: 0 DIFFERENT FILL-ORIGIN LEVEL: 0

PSCL4 TOTAL     ACCESS:      20133  HIT:      20133  MISS:          0  HIT %:        100  MISS %:          0   MPKI: 0
PSCL4 LOAD TRANSLATION ACCESS:      20133  HIT:      20133  MISS:          0  HIT %:        100  MISS %:          0   MPKI: 0
PSCL4 PREFETCH  REQUESTED:          0  ISSUED:          0  USEFUL:          0  USELESS:          0
PSCL4 USEFUL LOAD PREFETCHES:          0 PREFETCH ISSUED TO LOWER LEVEL:          0  ACCURACY: -nan
PSCL4 TIMELY PREFETCHES:          0 LATE PREFETCHES: 0 DROPPED PREFETCHES: 0
PSCL4 PREFETCHES SAME FILL-ORIGIN LEVEL: 0 DIFFERENT FILL-ORIGIN LEVEL: 0

PSCL3 TOTAL     ACCESS:      20133  HIT:      20133  MISS:          0  HIT %:        100  MISS %:          0   MPKI: 0
PSCL3 LOAD TRANSLATION ACCESS:      20133  HIT:      20133  MISS:          0  HIT %:        100  MISS %:          0   MPKI: 0
PSCL3 PREFETCH  REQUESTED:          0  ISSUED:          0  USEFUL:          0  USELESS:          0
PSCL3 USEFUL LOAD PREFETCHES:          0 PREFETCH ISSUED TO LOWER LEVEL:          0  ACCURACY: -nan
PSCL3 TIMELY PREFETCHES:          0 LATE PREFETCHES: 0 DROPPED PREFETCHES: 0
PSCL3 PREFETCHES SAME FILL-ORIGIN LEVEL: 0 DIFFERENT FILL-ORIGIN LEVEL: 0

PSCL2 TOTAL     ACCESS:      20133  HIT:      20085  MISS:         48  HIT %:    99.7616  MISS %:   0.238415   MPKI: 0.00096
PSCL2 LOAD TRANSLATION ACCESS:      20133  HIT:      20085  MISS:         48  HIT %:    99.7616  MISS %:   0.238415   MPKI: 0.00096
PSCL2 PREFETCH  REQUESTED:          0  ISSUED:          0  USEFUL:          0  USELESS:          0
PSCL2 USEFUL LOAD PREFETCHES:          0 PREFETCH ISSUED TO LOWER LEVEL:          0  ACCURACY: -nan
PSCL2 TIMELY PREFETCHES:          0 LATE PREFETCHES: 0 DROPPED PREFETCHES: 0
PSCL2 PREFETCHES SAME FILL-ORIGIN LEVEL: 0 DIFFERENT FILL-ORIGIN LEVEL: 0

LLC TOTAL     ACCESS:    2276613  HIT:     986992  MISS:    1289621  HIT %:    43.3535  MISS %:    56.6465   MPKI: 25.7924
LLC LOAD      ACCESS:     301790  HIT:          0  MISS:     301790  HIT %:          0  MISS %:        100   MPKI: 6.0358
LLC RFO       ACCESS:     985258  HIT:          0  MISS:     985258  HIT %:          0  MISS %:        100   MPKI: 19.7052
LLC WRITEBACK ACCESS:     986943  HIT:     986943  MISS:          0  HIT %:        100  MISS %:          0   MPKI: 0
LLC LOAD TRANSLATION ACCESS:       2622  HIT:         49  MISS:       2573  HIT %:     1.8688  MISS %:    98.1312   MPKI: 0.05146
LLC PREFETCH  REQUESTED:          0  ISSUED:          0  USEFUL:          0  USELESS:          0
LLC USEFUL LOAD PREFETCHES:          0 PREFETCH ISSUED TO LOWER LEVEL:          0  ACCURACY: -nan
LLC TIMELY PREFETCHES:          0 LATE PREFETCHES: 0 DROPPED PREFETCHES: 0
LLC PREFETCHES SAME FILL-ORIGIN LEVEL: 0 DIFFERENT FILL-ORIGIN LEVEL: 0
LLC AVERAGE MISS LATENCY: 202.03 cycles
LLC RQ	ACCESS:    1289670	FORWARD:          0	MERGED:          0	TO_CACHE:    1289670
LLC WQ	ACCESS:     986944	FORWARD:          0	MERGED:          0	TO_CACHE:     986944

LLC Dense regions hint to LLC: 0

RAW hits: 4
Loads Generated: 5316904
Loads sent to L1D: 5316900
Stores Generated: 9920651
Stores sent to L1D: 9920647
Major fault: 0 Minor fault: 42653
Allocated PAGES: 42653

DRAM Statistics
 CHANNEL 0
 RQ ROW_BUFFER_HIT:     209038  ROW_BUFFER_MISS:    1080583
 DBUS_CONGESTED:        106
 WQ ROW_BUFFER_HIT:     663205  ROW_BUFFER_MISS:     328447  FULL:          0

 AVG_CONGESTED_CYCLE: 5
 All warmup complete: 2
Channel 0 Bank busy for read cycles: 0
Channel 0 Bank busy for write cycles: 0
Channel 0
Rank 0
0banks busy for read cycles: 314703
0banks busy for write cycles: 53
1banks busy for read cycles: 13890774
1banks busy for write cycles: 308131
2banks busy for read cycles: 15263343
2banks busy for write cycles: 307511
3banks busy for read cycles: 20476407
3banks busy for write cycles: 310349
4banks busy for read cycles: 1581423
4banks busy for write cycles: 323578
5banks busy for read cycles: 625505
5banks busy for write cycles: 346573
6banks busy for read cycles: 4323533
6banks busy for write cycles: 528723
7banks busy for read cycles: 1744442
7banks busy for write cycles: 2472860
8banks busy for read cycles: 2565237
8banks busy for write cycles: 27131558

CPU 0 Branch Prediction Accuracy: 99.1289% MPKI: 1.09324 Average ROB Occupancy at Mispredict: 204.772
Branch types
NOT_BRANCH: 43724960 87.4499%
BRANCH_DIRECT_JUMP: 20 4e-05%
BRANCH_INDIRECT: 0 0%
BRANCH_CONDITIONAL: 6275352 12.5507%
BRANCH_DIRECT_CALL: 4 8e-06%
BRANCH_INDIRECT_CALL: 0 0%
BRANCH_RETURN: 4 8e-06%
BRANCH_OTHER: 0 0%

DRAM PAGES: 1048576
Allocated PAGES: 42653
