
*** ChampSim Multicore Out-of-Order Simulator ***

Warmup Instructions: 50000000
Simulation Instructions: 50000000
Number of CPUs: 1
LLC sets: 2048
LLC ways: 16
Off-chip DRAM Size: 4096 MB Channels: 1 Width: 64-bit Data Rate: 6400 MT/s
CPU 0 runs ../Ligra/ligra_BFSCC.com-lj.ungraph.gcc_6.3.0_O3.drop_3500M.length_250M.champsimtrace.xz
.xz
CPU 0 Bimodal branch predictor
BTB has LRU replacement policy
ITLB has LRU replacement policy
DTLB has LRU replacement policy
STLB has LRU replacement policy
L1I has LRU replacement policy
CPU 0 L1D - Pythia Preftecher 
L1D has LRU replacement policy
L2C has LRU replacement policy
LLC has LRU replacement policy
Heartbeat CPU 0 instructions: 10000002 cycles: 3333345 heartbeat IPC: 2.99999 cumulative IPC: 2.99999 (Simulation time: 0 hr 0 min 35 sec) 
Heartbeat CPU 0 instructions: 20000000 cycles: 6666677 heartbeat IPC: 3 cumulative IPC: 3 (Simulation time: 0 hr 1 min 10 sec) 
Heartbeat CPU 0 instructions: 30000001 cycles: 10000011 heartbeat IPC: 3 cumulative IPC: 3 (Simulation time: 0 hr 1 min 46 sec) 
Heartbeat CPU 0 instructions: 40000001 cycles: 13333345 heartbeat IPC: 3 cumulative IPC: 3 (Simulation time: 0 hr 2 min 23 sec) 
Heartbeat CPU 0 instructions: 50000001 cycles: 16666678 heartbeat IPC: 3 cumulative IPC: 3 (Simulation time: 0 hr 2 min 58 sec) 

Warmup complete CPU 0 instructions: 50000001 cycles: 16666678 (Simulation time: 0 hr 2 min 58 sec) 

Heartbeat CPU 0 instructions: 60000000 cycles: 35679373 heartbeat IPC: 0.525964 cumulative IPC: 0.525964 (Simulation time: 0 hr 3 min 31 sec) 
Heartbeat CPU 0 instructions: 70000000 cycles: 54473665 heartbeat IPC: 0.532076 cumulative IPC: 0.529003 (Simulation time: 0 hr 4 min 3 sec) 
Heartbeat CPU 0 instructions: 80000000 cycles: 73103050 heartbeat IPC: 0.536786 cumulative IPC: 0.531572 (Simulation time: 0 hr 4 min 35 sec) 
Heartbeat CPU 0 instructions: 90000002 cycles: 91850299 heartbeat IPC: 0.533412 cumulative IPC: 0.532031 (Simulation time: 0 hr 5 min 7 sec) 
Heartbeat CPU 0 instructions: 100000001 cycles: 110456713 heartbeat IPC: 0.537449 cumulative IPC: 0.533106 (Simulation time: 0 hr 5 min 40 sec) 
Finished CPU 0 instructions: 50000000 cycles: 93790035 cumulative IPC: 0.533106 (Simulation time: 0 hr 5 min 40 sec) 

ChampSim completed all CPUs

Region of Interest Statistics

CPU 0 cumulative IPC: 0.533106 instructions: 50000000 cycles: 93790035
ITLB TOTAL     ACCESS:    7995032  HIT:    7995032  MISS:          0  HIT %:        100  MISS %:          0   MPKI: 0
ITLB LOAD TRANSLATION ACCESS:    7995032  HIT:    7995032  MISS:          0  HIT %:        100  MISS %:          0   MPKI: 0
ITLB PREFETCH  REQUESTED:          0  ISSUED:          0  USEFUL:          0  USELESS:          0
ITLB USEFUL LOAD PREFETCHES:          0 PREFETCH ISSUED TO LOWER LEVEL:          0  ACCURACY: -nan
ITLB TIMELY PREFETCHES:          0 LATE PREFETCHES: 0 DROPPED PREFETCHES: 0
ITLB PREFETCHES SAME FILL-ORIGIN LEVEL: 0 DIFFERENT FILL-ORIGIN LEVEL: 0
ITLB AVERAGE MISS LATENCY: -nan cycles
ITLB RQ	ACCESS:    7995033	FORWARD:          0	MERGED:          0	TO_CACHE:    7995033

DTLB TOTAL     ACCESS:   10973012  HIT:   10970217  MISS:       2795  HIT %:    99.9745  MISS %:  0.0254716   MPKI: 0.0559
DTLB LOAD TRANSLATION ACCESS:   10973012  HIT:   10970217  MISS:       2795  HIT %:    99.9745  MISS %:  0.0254716   MPKI: 0.0559
DTLB PREFETCH  REQUESTED:          0  ISSUED:          0  USEFUL:          0  USELESS:          0
DTLB USEFUL LOAD PREFETCHES:          0 PREFETCH ISSUED TO LOWER LEVEL:          0  ACCURACY: -nan
DTLB TIMELY PREFETCHES:          0 LATE PREFETCHES: 0 DROPPED PREFETCHES: 0
DTLB PREFETCHES SAME FILL-ORIGIN LEVEL: 0 DIFFERENT FILL-ORIGIN LEVEL: 0
DTLB AVERAGE MISS LATENCY: 145.18 cycles
DTLB RQ	ACCESS:   11011328	FORWARD:          0	MERGED:      35001	TO_CACHE:   10976327

STLB TOTAL     ACCESS:    3144551  HIT:    3141756  MISS:       2795  HIT %:    99.9111  MISS %:  0.0888839   MPKI: 0.0559
STLB LOAD TRANSLATION ACCESS:       2795  HIT:          0  MISS:       2795  HIT %:          0  MISS %:        100   MPKI: 0.0559
STLB TRANSLATION FROM L1D PREFETCHER ACCESS:    3141756  HIT:    3141756  MISS:          0  HIT %:        100  MISS %:          0   MPKI: 0
STLB PREFETCH  REQUESTED:          0  ISSUED:          0  USEFUL:          0  USELESS:          0
STLB USEFUL LOAD PREFETCHES:          0 PREFETCH ISSUED TO LOWER LEVEL:          0  ACCURACY: -nan
STLB TIMELY PREFETCHES:          0 LATE PREFETCHES: 0 DROPPED PREFETCHES: 0
STLB PREFETCHES SAME FILL-ORIGIN LEVEL: 0 DIFFERENT FILL-ORIGIN LEVEL: 0
STLB AVERAGE MISS LATENCY: 136.18 cycles
STLB RQ	ACCESS:    9191387	FORWARD:          0	MERGED:    6046836	TO_CACHE:    3144551

STLB Hit, L1D data hit: 0
STLB Hit, L2C data hit: 0
STLB Hit, LLC data hit: 0
STLB Hit, LLC data miss: 0
STLB STLB hints to L2: 0
L1D TOTAL     ACCESS:   19131178  HIT:   18952317  MISS:     178861  HIT %:    99.0651  MISS %:   0.934919   MPKI: 3.57722
L1D LOAD      ACCESS:    5282124  HIT:    5279180  MISS:       2944  HIT %:    99.9443  MISS %:  0.0557352   MPKI: 0.05888
L1D RFO       ACCESS:    4844516  HIT:    4755082  MISS:      89434  HIT %:    98.1539  MISS %:    1.84609   MPKI: 1.78868
L1D PREFETCH  ACCESS:    9004538  HIT:    8918055  MISS:      86483  HIT %:    99.0396  MISS %:   0.960438   MPKI: 1.72966
AGUS PREFETCH L1 MISS: 0
L1D PREFETCH  REQUESTED:   24688836  ISSUED:   24688836  USEFUL:      86490  USELESS:          0
L1D USEFUL LOAD PREFETCHES:      86490 PREFETCH ISSUED TO LOWER LEVEL:      86502  ACCURACY: 99.9861
L1D TIMELY PREFETCHES:      86490 LATE PREFETCHES: 19 DROPPED PREFETCHES: 0
L1D PREFETCHES SAME FILL-ORIGIN LEVEL: 86502 DIFFERENT FILL-ORIGIN LEVEL: 0
L1D AVERAGE MISS LATENCY: 169.712 cycles
L1D RQ	ACCESS:   10690511	FORWARD:          0	MERGED:    5402978	TO_CACHE:    5287533
L1D WQ	ACCESS:    5723795	FORWARD:          0	MERGED:          0	TO_CACHE:    5723795
L1D PQ	ACCESS:   15500244	FORWARD:          0	MERGED:    6311652	TO_CACHE:    9188592

L1D UNIQUE REGIONS ACCESSED: 0
L1D REGIONS CONFLICTS: 0
L1D Cross Page Prefetch Requests: 0
L1D Same Page Prefetch Requests: 37197058
L1D ROI Sum of L1D PQ occupancy: 122296919
L1D PREFETCHES PUSHED FROM L2C: 0
L1I TOTAL     ACCESS:    7995032  HIT:    7995032  MISS:          0  HIT %:        100  MISS %:          0   MPKI: 0
L1I LOAD      ACCESS:    7995032  HIT:    7995032  MISS:          0  HIT %:        100  MISS %:          0   MPKI: 0
L1I PREFETCH  REQUESTED:          0  ISSUED:          0  USEFUL:          0  USELESS:          0
L1I USEFUL LOAD PREFETCHES:          0 PREFETCH ISSUED TO LOWER LEVEL:          0  ACCURACY: -nan
L1I TIMELY PREFETCHES:          0 LATE PREFETCHES: 0 DROPPED PREFETCHES: 0
L1I PREFETCHES SAME FILL-ORIGIN LEVEL: 0 DIFFERENT FILL-ORIGIN LEVEL: 0
L1I AVERAGE MISS LATENCY: -nan cycles
L1I RQ	ACCESS:   14475899	FORWARD:          0	MERGED:    6480866	TO_CACHE:    7995033

BTB TOTAL     ACCESS:   11447585  HIT:   11447583  MISS:          2  HIT %:        100  MISS %: 1.74709e-05   MPKI: 4e-05
BTB BRANCH_DIRECT_JUMP	ACCESS:          0  HIT:          0  MISS:          0
BTB BRANCH_INDIRECT	ACCESS:          0  HIT:          0  MISS:          0
BTB BRANCH_CONDITIONAL	ACCESS:   11447585  HIT:   11447583  MISS:          2
BTB BRANCH_DIRECT_CALL	ACCESS:          0  HIT:          0  MISS:          0
BTB BRANCH_INDIRECT_CALL	ACCESS:          0  HIT:          0  MISS:          0
BTB BRANCH_RETURN	ACCESS:          0  HIT:          0  MISS:          0
BTB BRANCH_OTHER ACCESS:          0  HIT:          0  MISS:          0

L2C TOTAL     ACCESS:     271089  HIT:      91873  MISS:     179216  HIT %:    33.8903  MISS %:    66.1097   MPKI: 3.58432
L2C LOAD      ACCESS:       2925  HIT:          0  MISS:       2925  HIT %:          0  MISS %:        100   MPKI: 0.0585
L2C DATA LOAD MPKI: 0.0585
L2C INSTRUCTION LOAD MPKI: 0
L2C RFO       ACCESS:      89434  HIT:          0  MISS:      89434  HIT %:          0  MISS %:        100   MPKI: 1.78868
L2C PREFETCH  ACCESS:      86502  HIT:          0  MISS:      86502  HIT %:          0  MISS %:        100   MPKI: 1.73004
AGUS PREFETCH L1 MISS: 0
L2C DATA PREFETCH MPKI: 1.73004
L2C INSTRUCTION PREFETCH MPKI: 0
L2C WRITEBACK ACCESS:      89433  HIT:      89433  MISS:          0  HIT %:        100  MISS %:          0   MPKI: 0
L2C LOAD TRANSLATION ACCESS:       2795  HIT:       2440  MISS:        355  HIT %:    87.2987  MISS %:    12.7013   MPKI: 0.0071
L2C PREFETCH  REQUESTED:          0  ISSUED:          0  USEFUL:          0  USELESS:      86608
L2C USEFUL LOAD PREFETCHES:          0 PREFETCH ISSUED TO LOWER LEVEL:      86502  ACCURACY: 0
L2C TIMELY PREFETCHES:          0 LATE PREFETCHES: 0 DROPPED PREFETCHES: 0
L2C PREFETCHES SAME FILL-ORIGIN LEVEL: 0 DIFFERENT FILL-ORIGIN LEVEL: 0
L2C AVERAGE MISS LATENCY: 154.755 cycles
L2C RQ	ACCESS:      95154	FORWARD:          0	MERGED:          0	TO_CACHE:      95154
L2C WQ	ACCESS:      89433	FORWARD:          0	MERGED:          0	TO_CACHE:      89433
L2C PQ	ACCESS:      86502	FORWARD:          0	MERGED:          0	TO_CACHE:      86502

L2C Instructions Evicting Data 0
L2C Translations Evicting Data 355
L2C Data Evicting Data 178506
L2C Instructions Evicting Instructions 0
L2C Translations Evicting Instructions 0
L2C Data Evicting Instructions 0
L2C Instructions Evicting Translations 0
L2C Translations Evicting Translations 0
L2C Data Evicting Translations 355
L2C Dense regions hint from L2: 0
PSCL5 TOTAL     ACCESS:       2795  HIT:       2795  MISS:          0  HIT %:        100  MISS %:          0   MPKI: 0
PSCL5 LOAD TRANSLATION ACCESS:       2795  HIT:       2795  MISS:          0  HIT %:        100  MISS %:          0   MPKI: 0
PSCL5 PREFETCH  REQUESTED:          0  ISSUED:          0  USEFUL:          0  USELESS:          0
PSCL5 USEFUL LOAD PREFETCHES:          0 PREFETCH ISSUED TO LOWER LEVEL:          0  ACCURACY: -nan
PSCL5 TIMELY PREFETCHES:          0 LATE PREFETCHES: 0 DROPPED PREFETCHES: 0
PSCL5 PREFETCHES SAME FILL-ORIGIN LEVEL: 0 DIFFERENT FILL-ORIGIN LEVEL: 0

PSCL4 TOTAL     ACCESS:       2795  HIT:       2795  MISS:          0  HIT %:        100  MISS %:          0   MPKI: 0
PSCL4 LOAD TRANSLATION ACCESS:       2795  HIT:       2795  MISS:          0  HIT %:        100  MISS %:          0   MPKI: 0
PSCL4 PREFETCH  REQUESTED:          0  ISSUED:          0  USEFUL:          0  USELESS:          0
PSCL4 USEFUL LOAD PREFETCHES:          0 PREFETCH ISSUED TO LOWER LEVEL:          0  ACCURACY: -nan
PSCL4 TIMELY PREFETCHES:          0 LATE PREFETCHES: 0 DROPPED PREFETCHES: 0
PSCL4 PREFETCHES SAME FILL-ORIGIN LEVEL: 0 DIFFERENT FILL-ORIGIN LEVEL: 0

PSCL3 TOTAL     ACCESS:       2795  HIT:       2795  MISS:          0  HIT %:        100  MISS %:          0   MPKI: 0
PSCL3 LOAD TRANSLATION ACCESS:       2795  HIT:       2795  MISS:          0  HIT %:        100  MISS %:          0   MPKI: 0
PSCL3 PREFETCH  REQUESTED:          0  ISSUED:          0  USEFUL:          0  USELESS:          0
PSCL3 USEFUL LOAD PREFETCHES:          0 PREFETCH ISSUED TO LOWER LEVEL:          0  ACCURACY: -nan
PSCL3 TIMELY PREFETCHES:          0 LATE PREFETCHES: 0 DROPPED PREFETCHES: 0
PSCL3 PREFETCHES SAME FILL-ORIGIN LEVEL: 0 DIFFERENT FILL-ORIGIN LEVEL: 0

PSCL2 TOTAL     ACCESS:       2795  HIT:       2789  MISS:          6  HIT %:    99.7853  MISS %:   0.214669   MPKI: 0.00012
PSCL2 LOAD TRANSLATION ACCESS:       2795  HIT:       2789  MISS:          6  HIT %:    99.7853  MISS %:   0.214669   MPKI: 0.00012
PSCL2 PREFETCH  REQUESTED:          0  ISSUED:          0  USEFUL:          0  USELESS:          0
PSCL2 USEFUL LOAD PREFETCHES:          0 PREFETCH ISSUED TO LOWER LEVEL:          0  ACCURACY: -nan
PSCL2 TIMELY PREFETCHES:          0 LATE PREFETCHES: 0 DROPPED PREFETCHES: 0
PSCL2 PREFETCHES SAME FILL-ORIGIN LEVEL: 0 DIFFERENT FILL-ORIGIN LEVEL: 0

LLC TOTAL     ACCESS:     268586  HIT:      89370  MISS:     179216  HIT %:    33.2743  MISS %:    66.7257   MPKI: 3.58432
LLC LOAD      ACCESS:       2925  HIT:          0  MISS:       2925  HIT %:          0  MISS %:        100   MPKI: 0.0585
LLC RFO       ACCESS:      89434  HIT:          0  MISS:      89434  HIT %:          0  MISS %:        100   MPKI: 1.78868
LLC PREFETCH  ACCESS:      86502  HIT:          0  MISS:      86502  HIT %:          0  MISS %:        100   MPKI: 1.73004
AGUS PREFETCH L1 MISS: 0
LLC WRITEBACK ACCESS:      89370  HIT:      89370  MISS:          0  HIT %:        100  MISS %:          0   MPKI: 0
LLC LOAD TRANSLATION ACCESS:        355  HIT:          0  MISS:        355  HIT %:          0  MISS %:        100   MPKI: 0.0071
LLC PREFETCH  REQUESTED:          0  ISSUED:          0  USEFUL:          0  USELESS:      86689
LLC USEFUL LOAD PREFETCHES:          0 PREFETCH ISSUED TO LOWER LEVEL:      86502  ACCURACY: 0
LLC TIMELY PREFETCHES:          0 LATE PREFETCHES: 0 DROPPED PREFETCHES: 0
LLC PREFETCHES SAME FILL-ORIGIN LEVEL: 0 DIFFERENT FILL-ORIGIN LEVEL: 0
LLC AVERAGE MISS LATENCY: 124.725 cycles
LLC RQ	ACCESS:      92714	FORWARD:          0	MERGED:          0	TO_CACHE:      92714
LLC WQ	ACCESS:      89370	FORWARD:          0	MERGED:          0	TO_CACHE:      89370
LLC PQ	ACCESS:      86502	FORWARD:          0	MERGED:          0	TO_CACHE:      86502

LLC Dense regions hint to LLC: 0

RAW hits: 0
Loads Generated: 10690511
Loads sent to L1D: 10690511
Stores Generated: 5723795
Stores sent to L1D: 5723795
Major fault: 0 Minor fault: 5612
Allocated PAGES: 5612
CPU 0 L1D nextline prefetcher final stats
 Action = 30 : 2642
 Action = 23 : 4515
 Action = 16 : 10457
 Action = 11 : 20246
 Action = 10 : 33479
 Action = 22 : 7896
 Action = 5 : 1443277
 Action = 4 : 1689773
 Action = 32 : 2141
 Action = -3 : 119666
 Action = 12 : 17159
 Action = -6 : 52163
 Action = 3 : 2612914
 Action = 1 : 6212089
 Action = -1 : 210850
 Action = 0 : 200

DRAM Statistics
 CHANNEL 0
 RQ ROW_BUFFER_HIT:      84656  ROW_BUFFER_MISS:      94560
 DBUS_CONGESTED:         72
 WQ ROW_BUFFER_HIT:       6816  ROW_BUFFER_MISS:      82472  FULL:          0

 AVG_CONGESTED_CYCLE: 4
 All warmup complete: 2
Channel 0 Bank busy for read cycles: 0
Channel 0 Bank busy for write cycles: 0
Channel 0
Rank 0
0banks busy for read cycles: 65004663
0banks busy for write cycles: 73285
1banks busy for read cycles: 14898850
1banks busy for write cycles: 10744592
2banks busy for read cycles: 1344263
2banks busy for write cycles: 1015598
3banks busy for read cycles: 253530
3banks busy for write cycles: 333623
4banks busy for read cycles: 15077
4banks busy for write cycles: 78402
5banks busy for read cycles: 1732
5banks busy for write cycles: 21650
6banks busy for read cycles: 44
6banks busy for write cycles: 4302
7banks busy for read cycles: 0
7banks busy for write cycles: 425
8banks busy for read cycles: 0
8banks busy for write cycles: 0

CPU 0 Branch Prediction Accuracy: 93.3866% MPKI: 15.1416 Average ROB Occupancy at Mispredict: 12.8918
Branch types
NOT_BRANCH: 38552411 77.1048%
BRANCH_DIRECT_JUMP: 0 0%
BRANCH_INDIRECT: 0 0%
BRANCH_CONDITIONAL: 11447591 22.8952%
BRANCH_DIRECT_CALL: 0 0%
BRANCH_INDIRECT_CALL: 0 0%
BRANCH_RETURN: 0 0%
BRANCH_OTHER: 0 0%

DRAM PAGES: 1048576
Allocated PAGES: 5612
