
*** ChampSim Multicore Out-of-Order Simulator ***

Warmup Instructions: 50000000
Simulation Instructions: 50000000
Number of CPUs: 1
LLC sets: 2048
LLC ways: 16
Off-chip DRAM Size: 4096 MB Channels: 1 Width: 64-bit Data Rate: 6400 MT/s
CPU 0 runs ../PARSEC/parsec_2.1.canneal.simlarge.prebuilt.drop_1250M.length_250M.champsimtrace.xz
.xz
CPU 0 Bimodal branch predictor
BTB has LRU replacement policy
ITLB has LRU replacement policy
DTLB has LRU replacement policy
STLB has LRU replacement policy
L1I has LRU replacement policy
L1D has LRU replacement policy
L2C has LRU replacement policy
LLC has LRU replacement policy
Heartbeat CPU 0 instructions: 10000002 cycles: 3117292 heartbeat IPC: 3.20791 cumulative IPC: 3.20791 (Simulation time: 0 hr 0 min 13 sec) 
Heartbeat CPU 0 instructions: 20000001 cycles: 6231234 heartbeat IPC: 3.21136 cumulative IPC: 3.20964 (Simulation time: 0 hr 0 min 26 sec) 
Heartbeat CPU 0 instructions: 30000003 cycles: 9345646 heartbeat IPC: 3.21088 cumulative IPC: 3.21005 (Simulation time: 0 hr 0 min 40 sec) 
Heartbeat CPU 0 instructions: 40000002 cycles: 12461547 heartbeat IPC: 3.20934 cumulative IPC: 3.20987 (Simulation time: 0 hr 0 min 53 sec) 
Heartbeat CPU 0 instructions: 50000001 cycles: 15580084 heartbeat IPC: 3.20663 cumulative IPC: 3.20923 (Simulation time: 0 hr 1 min 7 sec) 

Warmup complete CPU 0 instructions: 50000001 cycles: 15580084 (Simulation time: 0 hr 1 min 7 sec) 

Heartbeat CPU 0 instructions: 60000001 cycles: 54672427 heartbeat IPC: 0.255805 cumulative IPC: 0.255805 (Simulation time: 0 hr 1 min 26 sec) 
Heartbeat CPU 0 instructions: 70000000 cycles: 93725225 heartbeat IPC: 0.256064 cumulative IPC: 0.255934 (Simulation time: 0 hr 1 min 45 sec) 
Heartbeat CPU 0 instructions: 80000000 cycles: 132780349 heartbeat IPC: 0.256048 cumulative IPC: 0.255972 (Simulation time: 0 hr 2 min 4 sec) 
Heartbeat CPU 0 instructions: 90000000 cycles: 171848122 heartbeat IPC: 0.255965 cumulative IPC: 0.25597 (Simulation time: 0 hr 2 min 24 sec) 
Heartbeat CPU 0 instructions: 100000000 cycles: 211005979 heartbeat IPC: 0.255377 cumulative IPC: 0.255851 (Simulation time: 0 hr 2 min 44 sec) 
Finished CPU 0 instructions: 50000001 cycles: 195425896 cumulative IPC: 0.255851 (Simulation time: 0 hr 2 min 44 sec) 

ChampSim completed all CPUs

Region of Interest Statistics

CPU 0 cumulative IPC: 0.255851 instructions: 50000001 cycles: 195425896
ITLB TOTAL     ACCESS:    8684657  HIT:    8684602  MISS:         55  HIT %:    99.9994  MISS %: 0.000633301   MPKI: 0.0011
ITLB LOAD TRANSLATION ACCESS:    8684657  HIT:    8684602  MISS:         55  HIT %:    99.9994  MISS %: 0.000633301   MPKI: 0.0011
ITLB PREFETCH  REQUESTED:          0  ISSUED:          0  USEFUL:          0  USELESS:          0
ITLB USEFUL LOAD PREFETCHES:          0 PREFETCH ISSUED TO LOWER LEVEL:          0  ACCURACY: -nan
ITLB TIMELY PREFETCHES:          0 LATE PREFETCHES: 0 DROPPED PREFETCHES: 0
ITLB PREFETCHES SAME FILL-ORIGIN LEVEL: 0 DIFFERENT FILL-ORIGIN LEVEL: 0
ITLB AVERAGE MISS LATENCY: 222.055 cycles
ITLB RQ	ACCESS:    9840581	FORWARD:          0	MERGED:    1155919	TO_CACHE:    8684662

DTLB TOTAL     ACCESS:   14324770  HIT:   13895128  MISS:     429642  HIT %:    97.0007  MISS %:    2.99929   MPKI: 8.59284
DTLB LOAD TRANSLATION ACCESS:   14324770  HIT:   13895128  MISS:     429642  HIT %:    97.0007  MISS %:    2.99929   MPKI: 8.59284
DTLB PREFETCH  REQUESTED:          0  ISSUED:          0  USEFUL:          0  USELESS:          0
DTLB USEFUL LOAD PREFETCHES:          0 PREFETCH ISSUED TO LOWER LEVEL:          0  ACCURACY: -nan
DTLB TIMELY PREFETCHES:          0 LATE PREFETCHES: 0 DROPPED PREFETCHES: 0
DTLB PREFETCHES SAME FILL-ORIGIN LEVEL: 0 DIFFERENT FILL-ORIGIN LEVEL: 0
DTLB AVERAGE MISS LATENCY: 22.3129 cycles
DTLB RQ	ACCESS:   16537085	FORWARD:          0	MERGED:    2197655	TO_CACHE:   14339430

STLB TOTAL     ACCESS:     429697  HIT:     281104  MISS:     148593  HIT %:    65.4191  MISS %:    34.5809   MPKI: 2.97186
STLB LOAD TRANSLATION ACCESS:     429697  HIT:     281104  MISS:     148593  HIT %:    65.4191  MISS %:    34.5809   MPKI: 2.97186
STLB PREFETCH  REQUESTED:          0  ISSUED:          0  USEFUL:          0  USELESS:          0
STLB USEFUL LOAD PREFETCHES:          0 PREFETCH ISSUED TO LOWER LEVEL:          0  ACCURACY: -nan
STLB TIMELY PREFETCHES:          0 LATE PREFETCHES: 0 DROPPED PREFETCHES: 0
STLB PREFETCHES SAME FILL-ORIGIN LEVEL: 0 DIFFERENT FILL-ORIGIN LEVEL: 0
STLB AVERAGE MISS LATENCY: 38.5684 cycles
STLB RQ	ACCESS:     429697	FORWARD:          0	MERGED:          0	TO_CACHE:     429697

STLB Hit, L1D data hit: 0
STLB Hit, L2C data hit: 0
STLB Hit, LLC data hit: 0
STLB Hit, LLC data miss: 0
STLB STLB hints to L2: 0
L1D TOTAL     ACCESS:   16509059  HIT:   15833989  MISS:     675070  HIT %:    95.9109  MISS %:    4.08909   MPKI: 13.5014
L1D LOAD      ACCESS:   11114215  HIT:   10464773  MISS:     649442  HIT %:    94.1567  MISS %:    5.84335   MPKI: 12.9888
L1D RFO       ACCESS:    5394844  HIT:    5369216  MISS:      25628  HIT %:     99.525  MISS %:   0.475046   MPKI: 0.51256
L1D PREFETCH  REQUESTED:          0  ISSUED:          0  USEFUL:          0  USELESS:          0
L1D USEFUL LOAD PREFETCHES:          0 PREFETCH ISSUED TO LOWER LEVEL:          0  ACCURACY: -nan
L1D TIMELY PREFETCHES:          0 LATE PREFETCHES: 0 DROPPED PREFETCHES: 0
L1D PREFETCHES SAME FILL-ORIGIN LEVEL: 0 DIFFERENT FILL-ORIGIN LEVEL: 0
L1D AVERAGE MISS LATENCY: 134.451 cycles
L1D RQ	ACCESS:   13635933	FORWARD:          0	MERGED:    2297480	TO_CACHE:   11135014
L1D WQ	ACCESS:    5485191	FORWARD:     203439	MERGED:      83120	TO_CACHE:    5402071

L1D UNIQUE REGIONS ACCESSED: 0
L1D REGIONS CONFLICTS: 0
L1D Cross Page Prefetch Requests: 0
L1D Same Page Prefetch Requests: 0
L1D ROI Sum of L1D PQ occupancy: 0
L1D PREFETCHES PUSHED FROM L2C: 0
L1I TOTAL     ACCESS:    9837562  HIT:    9829377  MISS:       8185  HIT %:    99.9168  MISS %:  0.0832015   MPKI: 0.1637
L1I LOAD      ACCESS:    9837562  HIT:    9829377  MISS:       8185  HIT %:    99.9168  MISS %:  0.0832015   MPKI: 0.1637
L1I PREFETCH  REQUESTED:          0  ISSUED:          0  USEFUL:          0  USELESS:          0
L1I USEFUL LOAD PREFETCHES:          0 PREFETCH ISSUED TO LOWER LEVEL:          0  ACCURACY: -nan
L1I TIMELY PREFETCHES:          0 LATE PREFETCHES: 0 DROPPED PREFETCHES: 0
L1I PREFETCHES SAME FILL-ORIGIN LEVEL: 0 DIFFERENT FILL-ORIGIN LEVEL: 0
L1I AVERAGE MISS LATENCY: 16.5444 cycles
L1I RQ	ACCESS:   14013075	FORWARD:          0	MERGED:    4172494	TO_CACHE:    9840581

BTB TOTAL     ACCESS:    7036590  HIT:    6876206  MISS:     160384  HIT %:    97.7207  MISS %:    2.27929   MPKI: 3.20768
BTB BRANCH_DIRECT_JUMP	ACCESS:     998904  HIT:     998829  MISS:         75
BTB BRANCH_INDIRECT	ACCESS:      31272  HIT:      26425  MISS:       4847
BTB BRANCH_CONDITIONAL	ACCESS:    4353040  HIT:    4352865  MISS:        175
BTB BRANCH_DIRECT_CALL	ACCESS:     795827  HIT:     795766  MISS:         61
BTB BRANCH_INDIRECT_CALL	ACCESS:      30862  HIT:      30855  MISS:          7
BTB BRANCH_RETURN	ACCESS:     826685  HIT:     671466  MISS:     155219
BTB BRANCH_OTHER ACCESS:          0  HIT:          0  MISS:          0

L2C TOTAL     ACCESS:     932129  HIT:     376896  MISS:     555233  HIT %:    40.4339  MISS %:    59.5661   MPKI: 11.1047
L2C LOAD      ACCESS:     657627  HIT:     180665  MISS:     476962  HIT %:    27.4723  MISS %:    72.5277   MPKI: 9.53924
L2C DATA LOAD MPKI: 9.53556
L2C INSTRUCTION LOAD MPKI: 0.00368
L2C RFO       ACCESS:      25628  HIT:        407  MISS:      25221  HIT %:    1.58811  MISS %:    98.4119   MPKI: 0.50442
L2C WRITEBACK ACCESS:      93902  HIT:      93718  MISS:        184  HIT %:    99.8041  MISS %:   0.195949   MPKI: 0.00368
L2C LOAD TRANSLATION ACCESS:     154972  HIT:     102106  MISS:      52866  HIT %:    65.8867  MISS %:    34.1133   MPKI: 1.05732
L2C PREFETCH  REQUESTED:          0  ISSUED:          0  USEFUL:          0  USELESS:          0
L2C USEFUL LOAD PREFETCHES:          0 PREFETCH ISSUED TO LOWER LEVEL:          0  ACCURACY: -nan
L2C TIMELY PREFETCHES:          0 LATE PREFETCHES: 0 DROPPED PREFETCHES: 0
L2C PREFETCHES SAME FILL-ORIGIN LEVEL: 0 DIFFERENT FILL-ORIGIN LEVEL: 0
L2C AVERAGE MISS LATENCY: 150.129 cycles
L2C RQ	ACCESS:     838227	FORWARD:          0	MERGED:          0	TO_CACHE:     838227
L2C WQ	ACCESS:      93902	FORWARD:          0	MERGED:          0	TO_CACHE:      93902

L2C Instructions Evicting Data 165
L2C Translations Evicting Data 47462
L2C Data Evicting Data 454391
L2C Instructions Evicting Instructions 0
L2C Translations Evicting Instructions 18
L2C Data Evicting Instructions 159
L2C Instructions Evicting Translations 19
L2C Translations Evicting Translations 5386
L2C Data Evicting Translations 47449
L2C Dense regions hint from L2: 0
PSCL5 TOTAL     ACCESS:     148593  HIT:     148593  MISS:          0  HIT %:        100  MISS %:          0   MPKI: 0
PSCL5 LOAD TRANSLATION ACCESS:     148593  HIT:     148593  MISS:          0  HIT %:        100  MISS %:          0   MPKI: 0
PSCL5 PREFETCH  REQUESTED:          0  ISSUED:          0  USEFUL:          0  USELESS:          0
PSCL5 USEFUL LOAD PREFETCHES:          0 PREFETCH ISSUED TO LOWER LEVEL:          0  ACCURACY: -nan
PSCL5 TIMELY PREFETCHES:          0 LATE PREFETCHES: 0 DROPPED PREFETCHES: 0
PSCL5 PREFETCHES SAME FILL-ORIGIN LEVEL: 0 DIFFERENT FILL-ORIGIN LEVEL: 0

PSCL4 TOTAL     ACCESS:     148593  HIT:     148593  MISS:          0  HIT %:        100  MISS %:          0   MPKI: 0
PSCL4 LOAD TRANSLATION ACCESS:     148593  HIT:     148593  MISS:          0  HIT %:        100  MISS %:          0   MPKI: 0
PSCL4 PREFETCH  REQUESTED:          0  ISSUED:          0  USEFUL:          0  USELESS:          0
PSCL4 USEFUL LOAD PREFETCHES:          0 PREFETCH ISSUED TO LOWER LEVEL:          0  ACCURACY: -nan
PSCL4 TIMELY PREFETCHES:          0 LATE PREFETCHES: 0 DROPPED PREFETCHES: 0
PSCL4 PREFETCHES SAME FILL-ORIGIN LEVEL: 0 DIFFERENT FILL-ORIGIN LEVEL: 0

PSCL3 TOTAL     ACCESS:     148593  HIT:     148593  MISS:          0  HIT %:        100  MISS %:          0   MPKI: 0
PSCL3 LOAD TRANSLATION ACCESS:     148593  HIT:     148593  MISS:          0  HIT %:        100  MISS %:          0   MPKI: 0
PSCL3 PREFETCH  REQUESTED:          0  ISSUED:          0  USEFUL:          0  USELESS:          0
PSCL3 USEFUL LOAD PREFETCHES:          0 PREFETCH ISSUED TO LOWER LEVEL:          0  ACCURACY: -nan
PSCL3 TIMELY PREFETCHES:          0 LATE PREFETCHES: 0 DROPPED PREFETCHES: 0
PSCL3 PREFETCHES SAME FILL-ORIGIN LEVEL: 0 DIFFERENT FILL-ORIGIN LEVEL: 0

PSCL2 TOTAL     ACCESS:     148593  HIT:     142213  MISS:       6380  HIT %:    95.7064  MISS %:    4.29361   MPKI: 0.1276
PSCL2 LOAD TRANSLATION ACCESS:     148593  HIT:     142213  MISS:       6380  HIT %:    95.7064  MISS %:    4.29361   MPKI: 0.1276
PSCL2 PREFETCH  REQUESTED:          0  ISSUED:          0  USEFUL:          0  USELESS:          0
PSCL2 USEFUL LOAD PREFETCHES:          0 PREFETCH ISSUED TO LOWER LEVEL:          0  ACCURACY: -nan
PSCL2 TIMELY PREFETCHES:          0 LATE PREFETCHES: 0 DROPPED PREFETCHES: 0
PSCL2 PREFETCHES SAME FILL-ORIGIN LEVEL: 0 DIFFERENT FILL-ORIGIN LEVEL: 0

LLC TOTAL     ACCESS:     647840  HIT:     255561  MISS:     392279  HIT %:    39.4482  MISS %:    60.5518   MPKI: 7.84558
LLC LOAD      ACCESS:     476962  HIT:     116769  MISS:     360193  HIT %:    24.4818  MISS %:    75.5182   MPKI: 7.20386
LLC RFO       ACCESS:      25221  HIT:         29  MISS:      25192  HIT %:   0.114984  MISS %:     99.885   MPKI: 0.50384
LLC WRITEBACK ACCESS:      92791  HIT:      92729  MISS:         62  HIT %:    99.9332  MISS %:  0.0668168   MPKI: 0.00124
LLC LOAD TRANSLATION ACCESS:      52866  HIT:      46034  MISS:       6832  HIT %:    87.0768  MISS %:    12.9232   MPKI: 0.13664
LLC PREFETCH  REQUESTED:          0  ISSUED:          0  USEFUL:          0  USELESS:          0
LLC USEFUL LOAD PREFETCHES:          0 PREFETCH ISSUED TO LOWER LEVEL:          0  ACCURACY: -nan
LLC TIMELY PREFETCHES:          0 LATE PREFETCHES: 0 DROPPED PREFETCHES: 0
LLC PREFETCHES SAME FILL-ORIGIN LEVEL: 0 DIFFERENT FILL-ORIGIN LEVEL: 0
LLC AVERAGE MISS LATENCY: 170.045 cycles
LLC RQ	ACCESS:     555049	FORWARD:          0	MERGED:          0	TO_CACHE:     555049
LLC WQ	ACCESS:      92791	FORWARD:          0	MERGED:          0	TO_CACHE:      92791

LLC Dense regions hint to LLC: 0

RAW hits: 658776
Loads Generated: 14294709
Loads sent to L1D: 13635933
Stores Generated: 5485191
Stores sent to L1D: 5485191
Major fault: 0 Minor fault: 16669
Allocated PAGES: 16669

DRAM Statistics
 CHANNEL 0
 RQ ROW_BUFFER_HIT:       8335  ROW_BUFFER_MISS:     383882
 DBUS_CONGESTED:         20
 WQ ROW_BUFFER_HIT:      31960  ROW_BUFFER_MISS:      60458  FULL:          0

 AVG_CONGESTED_CYCLE: 3
 All warmup complete: 2
Channel 0 Bank busy for read cycles: 0
Channel 0 Bank busy for write cycles: 0
Channel 0
Rank 0
0banks busy for read cycles: 127900554
0banks busy for write cycles: 58583
1banks busy for read cycles: 43650963
1banks busy for write cycles: 12095432
2banks busy for read cycles: 6422401
2banks busy for write cycles: 3515298
3banks busy for read cycles: 494815
3banks busy for write cycles: 967986
4banks busy for read cycles: 4731
4banks busy for write cycles: 258511
5banks busy for read cycles: 0
5banks busy for write cycles: 47915
6banks busy for read cycles: 0
6banks busy for write cycles: 7296
7banks busy for read cycles: 0
7banks busy for write cycles: 1412
8banks busy for read cycles: 0
8banks busy for write cycles: 0

CPU 0 Branch Prediction Accuracy: 93.1302% MPKI: 13.5415 Average ROB Occupancy at Mispredict: 36.4094
Branch types
NOT_BRANCH: 40143936 80.2879%
BRANCH_DIRECT_JUMP: 998904 1.99781%
BRANCH_INDIRECT: 31272 0.062544%
BRANCH_CONDITIONAL: 7172204 14.3444%
BRANCH_DIRECT_CALL: 795827 1.59165%
BRANCH_INDIRECT_CALL: 30862 0.061724%
BRANCH_RETURN: 826685 1.65337%
BRANCH_OTHER: 0 0%

DRAM PAGES: 1048576
Allocated PAGES: 16669
