
*** ChampSim Multicore Out-of-Order Simulator ***

Warmup Instructions: 50000000
Simulation Instructions: 50000000
Number of CPUs: 1
LLC sets: 2048
LLC ways: 16
Off-chip DRAM Size: 4096 MB Channels: 1 Width: 64-bit Data Rate: 6400 MT/s
CPU 0 runs ../PARSEC/parsec_2.1.blackscholes.simlarge.prebuilt.drop_3000M.length_250M.champsimtrace.xz
.xz
CPU 0 Bimodal branch predictor
BTB has LRU replacement policy
ITLB has LRU replacement policy
DTLB has LRU replacement policy
STLB has LRU replacement policy
L1I has LRU replacement policy
CPU 0 L1D - Pythia Preftecher 
L1D has LRU replacement policy
L2C has LRU replacement policy
LLC has LRU replacement policy
Heartbeat CPU 0 instructions: 10000000 cycles: 3085726 heartbeat IPC: 3.24073 cumulative IPC: 3.24073 (Simulation time: 0 hr 0 min 46 sec) 
Heartbeat CPU 0 instructions: 20000003 cycles: 6171591 heartbeat IPC: 3.24058 cumulative IPC: 3.24066 (Simulation time: 0 hr 1 min 31 sec) 
Heartbeat CPU 0 instructions: 30000002 cycles: 9257268 heartbeat IPC: 3.24078 cumulative IPC: 3.2407 (Simulation time: 0 hr 2 min 15 sec) 
Heartbeat CPU 0 instructions: 40000001 cycles: 12342488 heartbeat IPC: 3.24126 cumulative IPC: 3.24084 (Simulation time: 0 hr 3 min 0 sec) 
Heartbeat CPU 0 instructions: 50000002 cycles: 15428006 heartbeat IPC: 3.24095 cumulative IPC: 3.24086 (Simulation time: 0 hr 3 min 45 sec) 

Warmup complete CPU 0 instructions: 50000002 cycles: 15428006 (Simulation time: 0 hr 3 min 45 sec) 

Heartbeat CPU 0 instructions: 60000002 cycles: 31316968 heartbeat IPC: 0.629368 cumulative IPC: 0.629368 (Simulation time: 0 hr 4 min 35 sec) 
Heartbeat CPU 0 instructions: 70000003 cycles: 47187298 heartbeat IPC: 0.630107 cumulative IPC: 0.629737 (Simulation time: 0 hr 5 min 27 sec) 
Heartbeat CPU 0 instructions: 80000000 cycles: 63068374 heartbeat IPC: 0.62968 cumulative IPC: 0.629718 (Simulation time: 0 hr 6 min 17 sec) 
Heartbeat CPU 0 instructions: 90000000 cycles: 78961467 heartbeat IPC: 0.629204 cumulative IPC: 0.629589 (Simulation time: 0 hr 7 min 9 sec) 
Heartbeat CPU 0 instructions: 100000002 cycles: 94844131 heartbeat IPC: 0.629617 cumulative IPC: 0.629595 (Simulation time: 0 hr 8 min 0 sec) 
Finished CPU 0 instructions: 50000000 cycles: 79416125 cumulative IPC: 0.629595 (Simulation time: 0 hr 8 min 0 sec) 

ChampSim completed all CPUs

Region of Interest Statistics

CPU 0 cumulative IPC: 0.629595 instructions: 50000000 cycles: 79416125
ITLB TOTAL     ACCESS:    7287498  HIT:    7287498  MISS:          0  HIT %:        100  MISS %:          0   MPKI: 0
ITLB LOAD TRANSLATION ACCESS:    7287498  HIT:    7287498  MISS:          0  HIT %:        100  MISS %:          0   MPKI: 0
ITLB PREFETCH  REQUESTED:          0  ISSUED:          0  USEFUL:          0  USELESS:          0
ITLB USEFUL LOAD PREFETCHES:          0 PREFETCH ISSUED TO LOWER LEVEL:          0  ACCURACY: -nan
ITLB TIMELY PREFETCHES:          0 LATE PREFETCHES: 0 DROPPED PREFETCHES: 0
ITLB PREFETCHES SAME FILL-ORIGIN LEVEL: 0 DIFFERENT FILL-ORIGIN LEVEL: 0
ITLB AVERAGE MISS LATENCY: -nan cycles
ITLB RQ	ACCESS:    8776397	FORWARD:          0	MERGED:    1488899	TO_CACHE:    7287498

DTLB TOTAL     ACCESS:    9072630  HIT:    8860428  MISS:     212202  HIT %:    97.6611  MISS %:    2.33892   MPKI: 4.24404
DTLB LOAD TRANSLATION ACCESS:    9072630  HIT:    8860428  MISS:     212202  HIT %:    97.6611  MISS %:    2.33892   MPKI: 4.24404
DTLB PREFETCH  REQUESTED:          0  ISSUED:          0  USEFUL:          0  USELESS:          0
DTLB USEFUL LOAD PREFETCHES:          0 PREFETCH ISSUED TO LOWER LEVEL:          0  ACCURACY: -nan
DTLB TIMELY PREFETCHES:          0 LATE PREFETCHES: 0 DROPPED PREFETCHES: 0
DTLB PREFETCHES SAME FILL-ORIGIN LEVEL: 0 DIFFERENT FILL-ORIGIN LEVEL: 0
DTLB AVERAGE MISS LATENCY: 9.13657 cycles
DTLB RQ	ACCESS:   11351664	FORWARD:          0	MERGED:    2272516	TO_CACHE:    9079148

STLB TOTAL     ACCESS:    6797426  HIT:    6797426  MISS:          0  HIT %:        100  MISS %:          0   MPKI: 0
STLB LOAD TRANSLATION ACCESS:     212202  HIT:     212202  MISS:          0  HIT %:        100  MISS %:          0   MPKI: 0
STLB TRANSLATION FROM L1D PREFETCHER ACCESS:    6585224  HIT:    6585224  MISS:          0  HIT %:        100  MISS %:          0   MPKI: 0
STLB PREFETCH  REQUESTED:          0  ISSUED:          0  USEFUL:          0  USELESS:          0
STLB USEFUL LOAD PREFETCHES:          0 PREFETCH ISSUED TO LOWER LEVEL:          0  ACCURACY: -nan
STLB TIMELY PREFETCHES:          0 LATE PREFETCHES: 0 DROPPED PREFETCHES: 0
STLB PREFETCHES SAME FILL-ORIGIN LEVEL: 0 DIFFERENT FILL-ORIGIN LEVEL: 0
STLB AVERAGE MISS LATENCY: -nan cycles
STLB RQ	ACCESS:   19632700	FORWARD:          0	MERGED:   12835273	TO_CACHE:    6797427

STLB Hit, L1D data hit: 0
STLB Hit, L2C data hit: 0
STLB Hit, LLC data hit: 0
STLB Hit, LLC data miss: 0
STLB STLB hints to L2: 0
L1D TOTAL     ACCESS:   30769632  HIT:   30702528  MISS:      67104  HIT %:    99.7819  MISS %:   0.218085   MPKI: 1.34208
L1D LOAD      ACCESS:    7375324  HIT:    7371321  MISS:       4003  HIT %:    99.9457  MISS %:  0.0542756   MPKI: 0.08006
L1D RFO       ACCESS:    3976317  HIT:    3971459  MISS:       4858  HIT %:    99.8778  MISS %:   0.122173   MPKI: 0.09716
L1D PREFETCH  ACCESS:   19417991  HIT:   19359748  MISS:      58243  HIT %:    99.7001  MISS %:   0.299943   MPKI: 1.16486
AGUS PREFETCH L1 MISS: 0
L1D PREFETCH  REQUESTED:   39686660  ISSUED:   39552630  USEFUL:      30771  USELESS:      27469
L1D USEFUL LOAD PREFETCHES:      30771 PREFETCH ISSUED TO LOWER LEVEL:      58243  ACCURACY: 52.8321
L1D TIMELY PREFETCHES:      30771 LATE PREFETCHES: 0 DROPPED PREFETCHES: 0
L1D PREFETCHES SAME FILL-ORIGIN LEVEL: 58243 DIFFERENT FILL-ORIGIN LEVEL: 0
L1D AVERAGE MISS LATENCY: 30.3552 cycles
L1D RQ	ACCESS:    9904226	FORWARD:          0	MERGED:    2446104	TO_CACHE:    7375346
L1D WQ	ACCESS:    3986104	FORWARD:      82776	MERGED:       9786	TO_CACHE:    3976318
L1D PQ	ACCESS:   20132132	FORWARD:          0	MERGED:     711634	TO_CACHE:   19420498

L1D UNIQUE REGIONS ACCESSED: 0
L1D REGIONS CONFLICTS: 0
L1D Cross Page Prefetch Requests: 0
L1D Same Page Prefetch Requests: 36503353
L1D ROI Sum of L1D PQ occupancy: 264471779
L1D PREFETCHES PUSHED FROM L2C: 0
L1I TOTAL     ACCESS:    8776395  HIT:    8776395  MISS:          0  HIT %:        100  MISS %:          0   MPKI: 0
L1I LOAD      ACCESS:    8776395  HIT:    8776395  MISS:          0  HIT %:        100  MISS %:          0   MPKI: 0
L1I PREFETCH  REQUESTED:          0  ISSUED:          0  USEFUL:          0  USELESS:          0
L1I USEFUL LOAD PREFETCHES:          0 PREFETCH ISSUED TO LOWER LEVEL:          0  ACCURACY: -nan
L1I TIMELY PREFETCHES:          0 LATE PREFETCHES: 0 DROPPED PREFETCHES: 0
L1I PREFETCHES SAME FILL-ORIGIN LEVEL: 0 DIFFERENT FILL-ORIGIN LEVEL: 0
L1I AVERAGE MISS LATENCY: -nan cycles
L1I RQ	ACCESS:   12808908	FORWARD:          0	MERGED:    4032511	TO_CACHE:    8776397

BTB TOTAL     ACCESS:    2652244  HIT:    2343245  MISS:     308999  HIT %:    88.3495  MISS %:    11.6505   MPKI: 6.17998
BTB BRANCH_DIRECT_JUMP	ACCESS:     644526  HIT:     644521  MISS:          5
BTB BRANCH_INDIRECT	ACCESS:          0  HIT:          0  MISS:          0
BTB BRANCH_CONDITIONAL	ACCESS:     764348  HIT:     764336  MISS:         12
BTB BRANCH_DIRECT_CALL	ACCESS:     621685  HIT:     621676  MISS:          9
BTB BRANCH_INDIRECT_CALL	ACCESS:          0  HIT:          0  MISS:          0
BTB BRANCH_RETURN	ACCESS:     621685  HIT:     312712  MISS:     308973
BTB BRANCH_OTHER ACCESS:          0  HIT:          0  MISS:          0

L2C TOTAL     ACCESS:      71963  HIT:      37686  MISS:      34277  HIT %:    52.3686  MISS %:    47.6314   MPKI: 0.68554
L2C LOAD      ACCESS:       4003  HIT:       2827  MISS:       1176  HIT %:     70.622  MISS %:     29.378   MPKI: 0.02352
L2C DATA LOAD MPKI: 0.02352
L2C INSTRUCTION LOAD MPKI: 0
L2C RFO       ACCESS:       4858  HIT:          0  MISS:       4858  HIT %:          0  MISS %:        100   MPKI: 0.09716
L2C PREFETCH  ACCESS:      58243  HIT:      30000  MISS:      28243  HIT %:    51.5083  MISS %:    48.4917   MPKI: 0.56486
AGUS PREFETCH L1 MISS: 0
L2C DATA PREFETCH MPKI: 0.56486
L2C INSTRUCTION PREFETCH MPKI: 0
L2C WRITEBACK ACCESS:       4859  HIT:       4859  MISS:          0  HIT %:        100  MISS %:          0   MPKI: 0
L2C PREFETCH  REQUESTED:          0  ISSUED:          0  USEFUL:       1169  USELESS:      26283
L2C USEFUL LOAD PREFETCHES:       1169 PREFETCH ISSUED TO LOWER LEVEL:      28243  ACCURACY: 4.13908
L2C TIMELY PREFETCHES:       1169 LATE PREFETCHES: 0 DROPPED PREFETCHES: 0
L2C PREFETCHES SAME FILL-ORIGIN LEVEL: 0 DIFFERENT FILL-ORIGIN LEVEL: 0
L2C AVERAGE MISS LATENCY: 30.0522 cycles
L2C RQ	ACCESS:       8861	FORWARD:          0	MERGED:          0	TO_CACHE:       8861
L2C WQ	ACCESS:       4859	FORWARD:          0	MERGED:          0	TO_CACHE:       4859
L2C PQ	ACCESS:      58243	FORWARD:          0	MERGED:          0	TO_CACHE:      58243

L2C Instructions Evicting Data 0
L2C Translations Evicting Data 0
L2C Data Evicting Data 34261
L2C Instructions Evicting Instructions 0
L2C Translations Evicting Instructions 0
L2C Data Evicting Instructions 5
L2C Instructions Evicting Translations 0
L2C Translations Evicting Translations 0
L2C Data Evicting Translations 11
L2C Dense regions hint from L2: 0
PSCL5 PREFETCH  REQUESTED:          0  ISSUED:          0  USEFUL:          0  USELESS:          0
PSCL5 USEFUL LOAD PREFETCHES:          0 PREFETCH ISSUED TO LOWER LEVEL:          0  ACCURACY: -nan
PSCL5 TIMELY PREFETCHES:          0 LATE PREFETCHES: 0 DROPPED PREFETCHES: 0
PSCL5 PREFETCHES SAME FILL-ORIGIN LEVEL: 0 DIFFERENT FILL-ORIGIN LEVEL: 0

PSCL4 PREFETCH  REQUESTED:          0  ISSUED:          0  USEFUL:          0  USELESS:          0
PSCL4 USEFUL LOAD PREFETCHES:          0 PREFETCH ISSUED TO LOWER LEVEL:          0  ACCURACY: -nan
PSCL4 TIMELY PREFETCHES:          0 LATE PREFETCHES: 0 DROPPED PREFETCHES: 0
PSCL4 PREFETCHES SAME FILL-ORIGIN LEVEL: 0 DIFFERENT FILL-ORIGIN LEVEL: 0

PSCL3 PREFETCH  REQUESTED:          0  ISSUED:          0  USEFUL:          0  USELESS:          0
PSCL3 USEFUL LOAD PREFETCHES:          0 PREFETCH ISSUED TO LOWER LEVEL:          0  ACCURACY: -nan
PSCL3 TIMELY PREFETCHES:          0 LATE PREFETCHES: 0 DROPPED PREFETCHES: 0
PSCL3 PREFETCHES SAME FILL-ORIGIN LEVEL: 0 DIFFERENT FILL-ORIGIN LEVEL: 0

PSCL2 PREFETCH  REQUESTED:          0  ISSUED:          0  USEFUL:          0  USELESS:          0
PSCL2 USEFUL LOAD PREFETCHES:          0 PREFETCH ISSUED TO LOWER LEVEL:          0  ACCURACY: -nan
PSCL2 TIMELY PREFETCHES:          0 LATE PREFETCHES: 0 DROPPED PREFETCHES: 0
PSCL2 PREFETCHES SAME FILL-ORIGIN LEVEL: 0 DIFFERENT FILL-ORIGIN LEVEL: 0

LLC TOTAL     ACCESS:      39141  HIT:      39124  MISS:         17  HIT %:    99.9566  MISS %:  0.0434327   MPKI: 0.00034
LLC LOAD      ACCESS:       1176  HIT:       1176  MISS:          0  HIT %:        100  MISS %:          0   MPKI: 0
LLC RFO       ACCESS:       4858  HIT:       4858  MISS:          0  HIT %:        100  MISS %:          0   MPKI: 0
LLC PREFETCH  ACCESS:      28243  HIT:      28226  MISS:         17  HIT %:    99.9398  MISS %:  0.0601919   MPKI: 0.00034
AGUS PREFETCH L1 MISS: 0
LLC WRITEBACK ACCESS:       4864  HIT:       4864  MISS:          0  HIT %:        100  MISS %:          0   MPKI: 0
LLC PREFETCH  REQUESTED:          0  ISSUED:          0  USEFUL:        533  USELESS:          0
LLC USEFUL LOAD PREFETCHES:        533 PREFETCH ISSUED TO LOWER LEVEL:         17  ACCURACY: 3135.29
LLC TIMELY PREFETCHES:        533 LATE PREFETCHES: 0 DROPPED PREFETCHES: 0
LLC PREFETCHES SAME FILL-ORIGIN LEVEL: 0 DIFFERENT FILL-ORIGIN LEVEL: 0
LLC AVERAGE MISS LATENCY: 105.294 cycles
LLC RQ	ACCESS:       6034	FORWARD:          0	MERGED:          0	TO_CACHE:       6034
LLC WQ	ACCESS:       4864	FORWARD:          0	MERGED:          0	TO_CACHE:       4864
LLC PQ	ACCESS:      28243	FORWARD:          0	MERGED:          0	TO_CACHE:      28243

LLC Dense regions hint to LLC: 0

RAW hits: 497912
Loads Generated: 10402138
Loads sent to L1D: 9904226
Stores Generated: 3986106
Stores sent to L1D: 3986104
Major fault: 0 Minor fault: 486
Allocated PAGES: 486
CPU 0 L1D nextline prefetcher final stats
 Action = 30 : 246253
 Action = 23 : 284010
 Action = 16 : 351109
 Action = 11 : 413653
 Action = 10 : 443755
 Action = 22 : 311793
 Action = 5 : 1351074
 Action = 4 : 1914361
 Action = 32 : 227558
 Action = -3 : 1162996
 Action = 12 : 381487
 Action = -6 : 963232
 Action = 3 : 1953355
 Action = 1 : 2139924
 Action = -1 : 1927749
 Action = 0 : 33003

DRAM Statistics
 CHANNEL 0
 RQ ROW_BUFFER_HIT:         12  ROW_BUFFER_MISS:          5
 DBUS_CONGESTED:          0
 WQ ROW_BUFFER_HIT:          0  ROW_BUFFER_MISS:          0  FULL:          0

 AVG_CONGESTED_CYCLE: -
 All warmup complete: 2
Channel 0 Bank busy for read cycles: 0
Channel 0 Bank busy for write cycles: 0
Channel 0
Rank 0
0banks busy for read cycles: 79415122
0banks busy for write cycles: 0
1banks busy for read cycles: 658
1banks busy for write cycles: 0
2banks busy for read cycles: 346
2banks busy for write cycles: 0
3banks busy for read cycles: 0
3banks busy for write cycles: 0
4banks busy for read cycles: 0
4banks busy for write cycles: 0
5banks busy for read cycles: 0
5banks busy for write cycles: 0
6banks busy for read cycles: 0
6banks busy for write cycles: 0
7banks busy for read cycles: 0
7banks busy for write cycles: 0
8banks busy for read cycles: 0
8banks busy for write cycles: 0

CPU 0 Branch Prediction Accuracy: 97.2686% MPKI: 2.67976 Average ROB Occupancy at Mispredict: 25.7112
Branch types
NOT_BRANCH: 45094117 90.1882%
BRANCH_DIRECT_JUMP: 644526 1.28905%
BRANCH_INDIRECT: 0 0%
BRANCH_CONDITIONAL: 3017663 6.03533%
BRANCH_DIRECT_CALL: 621685 1.24337%
BRANCH_INDIRECT_CALL: 0 0%
BRANCH_RETURN: 621685 1.24337%
BRANCH_OTHER: 0 0%

DRAM PAGES: 1048576
Allocated PAGES: 486
