
*** ChampSim Multicore Out-of-Order Simulator ***

Warmup Instructions: 50000000
Simulation Instructions: 50000000
Number of CPUs: 1
LLC sets: 2048
LLC ways: 16
Off-chip DRAM Size: 4096 MB Channels: 1 Width: 64-bit Data Rate: 6400 MT/s
CPU 0 runs ../PARSEC/parsec_2.1.canneal.simlarge.prebuilt.drop_1250M.length_250M.champsimtrace.xz
.xz
CPU 0 Bimodal branch predictor
BTB has LRU replacement policy
ITLB has LRU replacement policy
DTLB has LRU replacement policy
STLB has LRU replacement policy
L1I has LRU replacement policy
CPU 0 L1D - Pythia Preftecher 
L1D has LRU replacement policy
L2C has LRU replacement policy
LLC has LRU replacement policy
Heartbeat CPU 0 instructions: 10000002 cycles: 3147414 heartbeat IPC: 3.17721 cumulative IPC: 3.17721 (Simulation time: 0 hr 1 min 5 sec) 
Heartbeat CPU 0 instructions: 20000001 cycles: 6293055 heartbeat IPC: 3.179 cumulative IPC: 3.17811 (Simulation time: 0 hr 2 min 12 sec) 
Heartbeat CPU 0 instructions: 30000003 cycles: 9440056 heartbeat IPC: 3.17763 cumulative IPC: 3.17795 (Simulation time: 0 hr 3 min 18 sec) 
Heartbeat CPU 0 instructions: 40000002 cycles: 12587681 heartbeat IPC: 3.177 cumulative IPC: 3.17771 (Simulation time: 0 hr 4 min 24 sec) 
Heartbeat CPU 0 instructions: 50000001 cycles: 15738936 heartbeat IPC: 3.17334 cumulative IPC: 3.17683 (Simulation time: 0 hr 5 min 29 sec) 

Warmup complete CPU 0 instructions: 50000001 cycles: 15738936 (Simulation time: 0 hr 5 min 29 sec) 

Heartbeat CPU 0 instructions: 60000001 cycles: 58436571 heartbeat IPC: 0.234205 cumulative IPC: 0.234205 (Simulation time: 0 hr 6 min 45 sec) 
Heartbeat CPU 0 instructions: 70000000 cycles: 101169060 heartbeat IPC: 0.234014 cumulative IPC: 0.234109 (Simulation time: 0 hr 7 min 59 sec) 
Heartbeat CPU 0 instructions: 80000000 cycles: 144011533 heartbeat IPC: 0.233413 cumulative IPC: 0.233877 (Simulation time: 0 hr 9 min 13 sec) 
Heartbeat CPU 0 instructions: 90000000 cycles: 186737714 heartbeat IPC: 0.234049 cumulative IPC: 0.23392 (Simulation time: 0 hr 10 min 27 sec) 
Heartbeat CPU 0 instructions: 100000000 cycles: 229731352 heartbeat IPC: 0.232593 cumulative IPC: 0.233653 (Simulation time: 0 hr 11 min 37 sec) 
Finished CPU 0 instructions: 50000001 cycles: 213992417 cumulative IPC: 0.233653 (Simulation time: 0 hr 11 min 37 sec) 

ChampSim completed all CPUs

Region of Interest Statistics

CPU 0 cumulative IPC: 0.233653 instructions: 50000001 cycles: 213992417
ITLB TOTAL     ACCESS:    8686445  HIT:    8686390  MISS:         55  HIT %:    99.9994  MISS %: 0.00063317   MPKI: 0.0011
ITLB LOAD TRANSLATION ACCESS:    8686445  HIT:    8686390  MISS:         55  HIT %:    99.9994  MISS %: 0.00063317   MPKI: 0.0011
ITLB PREFETCH  REQUESTED:          0  ISSUED:          0  USEFUL:          0  USELESS:          0
ITLB USEFUL LOAD PREFETCHES:          0 PREFETCH ISSUED TO LOWER LEVEL:          0  ACCURACY: -nan
ITLB TIMELY PREFETCHES:          0 LATE PREFETCHES: 0 DROPPED PREFETCHES: 0
ITLB PREFETCHES SAME FILL-ORIGIN LEVEL: 0 DIFFERENT FILL-ORIGIN LEVEL: 0
ITLB AVERAGE MISS LATENCY: 286.109 cycles
ITLB RQ	ACCESS:    9842205	FORWARD:          0	MERGED:    1155755	TO_CACHE:    8686450

DTLB TOTAL     ACCESS:   14329992  HIT:   13900430  MISS:     429562  HIT %:    97.0024  MISS %:    2.99764   MPKI: 8.59124
DTLB LOAD TRANSLATION ACCESS:   14329992  HIT:   13900430  MISS:     429562  HIT %:    97.0024  MISS %:    2.99764   MPKI: 8.59124
DTLB PREFETCH  REQUESTED:          0  ISSUED:          0  USEFUL:          0  USELESS:          0
DTLB USEFUL LOAD PREFETCHES:          0 PREFETCH ISSUED TO LOWER LEVEL:          0  ACCURACY: -nan
DTLB TIMELY PREFETCHES:          0 LATE PREFETCHES: 0 DROPPED PREFETCHES: 0
DTLB PREFETCHES SAME FILL-ORIGIN LEVEL: 0 DIFFERENT FILL-ORIGIN LEVEL: 0
DTLB AVERAGE MISS LATENCY: 44.5462 cycles
DTLB RQ	ACCESS:   16545530	FORWARD:          0	MERGED:    2201086	TO_CACHE:   14344444

STLB TOTAL     ACCESS:   10699632  HIT:   10551203  MISS:     148429  HIT %:    98.6128  MISS %:    1.38723   MPKI: 2.96858
STLB LOAD TRANSLATION ACCESS:     429617  HIT:     281188  MISS:     148429  HIT %:    65.4509  MISS %:    34.5491   MPKI: 2.96858
STLB TRANSLATION FROM L1D PREFETCHER ACCESS:   10270015  HIT:   10270015  MISS:          0  HIT %:        100  MISS %:          0   MPKI: 0
STLB PREFETCH  REQUESTED:          0  ISSUED:          0  USEFUL:          0  USELESS:          0
STLB USEFUL LOAD PREFETCHES:          0 PREFETCH ISSUED TO LOWER LEVEL:          0  ACCURACY: -nan
STLB TIMELY PREFETCHES:          0 LATE PREFETCHES: 0 DROPPED PREFETCHES: 0
STLB PREFETCHES SAME FILL-ORIGIN LEVEL: 0 DIFFERENT FILL-ORIGIN LEVEL: 0
STLB AVERAGE MISS LATENCY: 102.924 cycles
STLB RQ	ACCESS:   28887468	FORWARD:          0	MERGED:   18187836	TO_CACHE:   10699632

STLB Hit, L1D data hit: 0
STLB Hit, L2C data hit: 0
STLB Hit, LLC data hit: 0
STLB Hit, LLC data miss: 0
STLB STLB hints to L2: 0
L1D TOTAL     ACCESS:   43861986  HIT:   38751483  MISS:    5110503  HIT %:    88.3487  MISS %:    11.6513   MPKI: 102.21
L1D LOAD      ACCESS:   11122324  HIT:   10246597  MISS:     875727  HIT %:    92.1264  MISS %:     7.8736   MPKI: 17.5145
L1D RFO       ACCESS:    5401967  HIT:    5397643  MISS:       4324  HIT %:      99.92  MISS %:  0.0800449   MPKI: 0.08648
L1D PREFETCH  ACCESS:   27337695  HIT:   23107243  MISS:    4230452  HIT %:    84.5252  MISS %:    15.4748   MPKI: 84.609
AGUS PREFETCH L1 MISS: 0
L1D PREFETCH  REQUESTED:   57666348  ISSUED:   57577965  USEFUL:      99462  USELESS:    4130914
L1D USEFUL LOAD PREFETCHES:      99462 PREFETCH ISSUED TO LOWER LEVEL:    4237394  ACCURACY: 2.34724
L1D TIMELY PREFETCHES:      99462 LATE PREFETCHES: 6892 DROPPED PREFETCHES: 0
L1D PREFETCHES SAME FILL-ORIGIN LEVEL: 4237394 DIFFERENT FILL-ORIGIN LEVEL: 0
L1D AVERAGE MISS LATENCY: 102.015 cycles
L1D RQ	ACCESS:   13640068	FORWARD:          0	MERGED:    2293539	TO_CACHE:   11142877
L1D WQ	ACCESS:    5485191	FORWARD:     221956	MERGED:      82538	TO_CACHE:    5402653
L1D PQ	ACCESS:   29120114	FORWARD:          0	MERGED:     643959	TO_CACHE:   28457851

L1D UNIQUE REGIONS ACCESSED: 0
L1D REGIONS CONFLICTS: 0
L1D Cross Page Prefetch Requests: 0
L1D Same Page Prefetch Requests: 52071013
L1D ROI Sum of L1D PQ occupancy: 394698840
L1D PREFETCHES PUSHED FROM L2C: 0
L1I TOTAL     ACCESS:    9839186  HIT:    9831001  MISS:       8185  HIT %:    99.9168  MISS %:  0.0831878   MPKI: 0.1637
L1I LOAD      ACCESS:    9839186  HIT:    9831001  MISS:       8185  HIT %:    99.9168  MISS %:  0.0831878   MPKI: 0.1637
L1I PREFETCH  REQUESTED:          0  ISSUED:          0  USEFUL:          0  USELESS:          0
L1I USEFUL LOAD PREFETCHES:          0 PREFETCH ISSUED TO LOWER LEVEL:          0  ACCURACY: -nan
L1I TIMELY PREFETCHES:          0 LATE PREFETCHES: 0 DROPPED PREFETCHES: 0
L1I PREFETCHES SAME FILL-ORIGIN LEVEL: 0 DIFFERENT FILL-ORIGIN LEVEL: 0
L1I AVERAGE MISS LATENCY: 20.9445 cycles
L1I RQ	ACCESS:   14016357	FORWARD:          0	MERGED:    4174152	TO_CACHE:    9842205

BTB TOTAL     ACCESS:    7036590  HIT:    6876206  MISS:     160384  HIT %:    97.7207  MISS %:    2.27929   MPKI: 3.20768
BTB BRANCH_DIRECT_JUMP	ACCESS:     998904  HIT:     998829  MISS:         75
BTB BRANCH_INDIRECT	ACCESS:      31272  HIT:      26425  MISS:       4847
BTB BRANCH_CONDITIONAL	ACCESS:    4353040  HIT:    4352865  MISS:        175
BTB BRANCH_DIRECT_CALL	ACCESS:     795827  HIT:     795766  MISS:         61
BTB BRANCH_INDIRECT_CALL	ACCESS:      30862  HIT:      30855  MISS:          7
BTB BRANCH_RETURN	ACCESS:     826685  HIT:     671466  MISS:     155219
BTB BRANCH_OTHER ACCESS:          0  HIT:          0  MISS:          0

L2C TOTAL     ACCESS:    5384610  HIT:    2642938  MISS:    2741672  HIT %:    49.0832  MISS %:    50.9168   MPKI: 54.8334
L2C LOAD      ACCESS:     876969  HIT:     372055  MISS:     504914  HIT %:    42.4251  MISS %:    57.5749   MPKI: 10.0983
L2C DATA LOAD MPKI: 10.0855
L2C INSTRUCTION LOAD MPKI: 0.01274
L2C RFO       ACCESS:       4271  HIT:       1673  MISS:       2598  HIT %:    39.1712  MISS %:    60.8288   MPKI: 0.05196
L2C PREFETCH  ACCESS:    4237373  HIT:    2112421  MISS:    2124952  HIT %:    49.8521  MISS %:    50.1479   MPKI: 42.499
AGUS PREFETCH L1 MISS: 0
L2C DATA PREFETCH MPKI: 42.499
L2C INSTRUCTION PREFETCH MPKI: 0
L2C WRITEBACK ACCESS:     112546  HIT:     111078  MISS:       1468  HIT %:    98.6956  MISS %:    1.30436   MPKI: 0.02936
L2C LOAD TRANSLATION ACCESS:     153451  HIT:      45711  MISS:     107740  HIT %:    29.7887  MISS %:    70.2113   MPKI: 2.1548
L2C PREFETCH  REQUESTED:          0  ISSUED:          0  USEFUL:      39178  USELESS:    2085181
L2C USEFUL LOAD PREFETCHES:      39178 PREFETCH ISSUED TO LOWER LEVEL:    2124952  ACCURACY: 1.84371
L2C TIMELY PREFETCHES:      39178 LATE PREFETCHES: 0 DROPPED PREFETCHES: 0
L2C PREFETCHES SAME FILL-ORIGIN LEVEL: 0 DIFFERENT FILL-ORIGIN LEVEL: 0
L2C AVERAGE MISS LATENCY: 166.617 cycles
L2C RQ	ACCESS:    1034745	FORWARD:          0	MERGED:          0	TO_CACHE:    1034691
L2C WQ	ACCESS:     112546	FORWARD:         75	MERGED:          0	TO_CACHE:     112546
L2C PQ	ACCESS:    4237394	FORWARD:          0	MERGED:          0	TO_CACHE:    4237373

L2C Instructions Evicting Data 578
L2C Translations Evicting Data 101979
L2C Data Evicting Data 2529272
L2C Instructions Evicting Instructions 30
L2C Translations Evicting Instructions 23
L2C Data Evicting Instructions 583
L2C Instructions Evicting Translations 29
L2C Translations Evicting Translations 5738
L2C Data Evicting Translations 101972
L2C Dense regions hint from L2: 0
PSCL5 TOTAL     ACCESS:     148429  HIT:     148429  MISS:          0  HIT %:        100  MISS %:          0   MPKI: 0
PSCL5 LOAD TRANSLATION ACCESS:     148429  HIT:     148429  MISS:          0  HIT %:        100  MISS %:          0   MPKI: 0
PSCL5 PREFETCH  REQUESTED:          0  ISSUED:          0  USEFUL:          0  USELESS:          0
PSCL5 USEFUL LOAD PREFETCHES:          0 PREFETCH ISSUED TO LOWER LEVEL:          0  ACCURACY: -nan
PSCL5 TIMELY PREFETCHES:          0 LATE PREFETCHES: 0 DROPPED PREFETCHES: 0
PSCL5 PREFETCHES SAME FILL-ORIGIN LEVEL: 0 DIFFERENT FILL-ORIGIN LEVEL: 0

PSCL4 TOTAL     ACCESS:     148429  HIT:     148429  MISS:          0  HIT %:        100  MISS %:          0   MPKI: 0
PSCL4 LOAD TRANSLATION ACCESS:     148429  HIT:     148429  MISS:          0  HIT %:        100  MISS %:          0   MPKI: 0
PSCL4 PREFETCH  REQUESTED:          0  ISSUED:          0  USEFUL:          0  USELESS:          0
PSCL4 USEFUL LOAD PREFETCHES:          0 PREFETCH ISSUED TO LOWER LEVEL:          0  ACCURACY: -nan
PSCL4 TIMELY PREFETCHES:          0 LATE PREFETCHES: 0 DROPPED PREFETCHES: 0
PSCL4 PREFETCHES SAME FILL-ORIGIN LEVEL: 0 DIFFERENT FILL-ORIGIN LEVEL: 0

PSCL3 TOTAL     ACCESS:     148429  HIT:     148429  MISS:          0  HIT %:        100  MISS %:          0   MPKI: 0
PSCL3 LOAD TRANSLATION ACCESS:     148429  HIT:     148429  MISS:          0  HIT %:        100  MISS %:          0   MPKI: 0
PSCL3 PREFETCH  REQUESTED:          0  ISSUED:          0  USEFUL:          0  USELESS:          0
PSCL3 USEFUL LOAD PREFETCHES:          0 PREFETCH ISSUED TO LOWER LEVEL:          0  ACCURACY: -nan
PSCL3 TIMELY PREFETCHES:          0 LATE PREFETCHES: 0 DROPPED PREFETCHES: 0
PSCL3 PREFETCHES SAME FILL-ORIGIN LEVEL: 0 DIFFERENT FILL-ORIGIN LEVEL: 0

PSCL2 TOTAL     ACCESS:     148429  HIT:     143406  MISS:       5023  HIT %:    96.6159  MISS %:    3.38411   MPKI: 0.10046
PSCL2 LOAD TRANSLATION ACCESS:     148429  HIT:     143406  MISS:       5023  HIT %:    96.6159  MISS %:    3.38411   MPKI: 0.10046
PSCL2 PREFETCH  REQUESTED:          0  ISSUED:          0  USEFUL:          0  USELESS:          0
PSCL2 USEFUL LOAD PREFETCHES:          0 PREFETCH ISSUED TO LOWER LEVEL:          0  ACCURACY: -nan
PSCL2 TIMELY PREFETCHES:          0 LATE PREFETCHES: 0 DROPPED PREFETCHES: 0
PSCL2 PREFETCHES SAME FILL-ORIGIN LEVEL: 0 DIFFERENT FILL-ORIGIN LEVEL: 0

LLC TOTAL     ACCESS:    2834337  HIT:     692747  MISS:    2141590  HIT %:    24.4412  MISS %:    75.5588   MPKI: 42.8318
LLC LOAD      ACCESS:     504914  HIT:     115570  MISS:     389344  HIT %:     22.889  MISS %:     77.111   MPKI: 7.78688
LLC RFO       ACCESS:       2598  HIT:         34  MISS:       2564  HIT %:     1.3087  MISS %:    98.6913   MPKI: 0.05128
LLC PREFETCH  ACCESS:    2124951  HIT:     423593  MISS:    1701358  HIT %:    19.9342  MISS %:    80.0658   MPKI: 34.0272
AGUS PREFETCH L1 MISS: 0
LLC WRITEBACK ACCESS:      94134  HIT:      93369  MISS:        765  HIT %:    99.1873  MISS %:   0.812671   MPKI: 0.0153
LLC LOAD TRANSLATION ACCESS:     107740  HIT:      60181  MISS:      47559  HIT %:    55.8576  MISS %:    44.1424   MPKI: 0.95118
LLC PREFETCH  REQUESTED:          0  ISSUED:          0  USEFUL:      30572  USELESS:    1668070
LLC USEFUL LOAD PREFETCHES:      30572 PREFETCH ISSUED TO LOWER LEVEL:    1701358  ACCURACY: 1.79692
LLC TIMELY PREFETCHES:      30572 LATE PREFETCHES: 0 DROPPED PREFETCHES: 0
LLC PREFETCHES SAME FILL-ORIGIN LEVEL: 0 DIFFERENT FILL-ORIGIN LEVEL: 0
LLC AVERAGE MISS LATENCY: 174.913 cycles
LLC RQ	ACCESS:     615252	FORWARD:          0	MERGED:          0	TO_CACHE:     615252
LLC WQ	ACCESS:      94134	FORWARD:          1	MERGED:          0	TO_CACHE:      94134
LLC PQ	ACCESS:    2124952	FORWARD:          0	MERGED:          0	TO_CACHE:    2124951

LLC Dense regions hint to LLC: 0

RAW hits: 654643
Loads Generated: 14294711
Loads sent to L1D: 13640068
Stores Generated: 5485191
Stores sent to L1D: 5485191
Major fault: 0 Minor fault: 16669
Allocated PAGES: 16669
CPU 0 L1D nextline prefetcher final stats
 Action = 30 : 589777
 Action = 23 : 700349
 Action = 16 : 1024440
 Action = 11 : 1272108
 Action = 10 : 1289931
 Action = 22 : 785524
 Action = 5 : 1625146
 Action = 4 : 1593239
 Action = 32 : 579753
 Action = -3 : 2171653
 Action = 12 : 1133450
 Action = -6 : 1927523
 Action = 3 : 1659951
 Action = 1 : 2255423
 Action = -1 : 2256025
 Action = 0 : 93544

DRAM Statistics
 CHANNEL 0
 RQ ROW_BUFFER_HIT:     523724  ROW_BUFFER_MISS:    1617099
 DBUS_CONGESTED:        723
 WQ ROW_BUFFER_HIT:      16586  ROW_BUFFER_MISS:      77115  FULL:          0

 AVG_CONGESTED_CYCLE: 4
 All warmup complete: 2
Channel 0 Bank busy for read cycles: 0
Channel 0 Bank busy for write cycles: 0
Channel 0
Rank 0
0banks busy for read cycles: 89556680
0banks busy for write cycles: 38403
1banks busy for read cycles: 33133030
1banks busy for write cycles: 8620957
2banks busy for read cycles: 26213368
2banks busy for write cycles: 4585356
3banks busy for read cycles: 23436252
3banks busy for write cycles: 2640253
4banks busy for read cycles: 12051901
4banks busy for write cycles: 1326194
5banks busy for read cycles: 6898561
5banks busy for write cycles: 527949
6banks busy for read cycles: 3321026
6banks busy for write cycles: 173865
7banks busy for read cycles: 1197287
7banks busy for write cycles: 32543
8banks busy for read cycles: 235707
8banks busy for write cycles: 3086

CPU 0 Branch Prediction Accuracy: 93.1302% MPKI: 13.5415 Average ROB Occupancy at Mispredict: 36.4226
Branch types
NOT_BRANCH: 40143936 80.2879%
BRANCH_DIRECT_JUMP: 998904 1.99781%
BRANCH_INDIRECT: 31272 0.062544%
BRANCH_CONDITIONAL: 7172204 14.3444%
BRANCH_DIRECT_CALL: 795827 1.59165%
BRANCH_INDIRECT_CALL: 30862 0.061724%
BRANCH_RETURN: 826685 1.65337%
BRANCH_OTHER: 0 0%

DRAM PAGES: 1048576
Allocated PAGES: 16669
