
*** ChampSim Multicore Out-of-Order Simulator ***

Warmup Instructions: 25000000
Simulation Instructions: 25000000
Number of CPUs: 1
LLC sets: 2048
LLC ways: 16
Off-chip DRAM Size: 4096 MB Channels: 1 Width: 64-bit Data Rate: 6400 MT/s
CPU 0 runs ../traces/pr-10.trace.gz
.gz
CPU 0 Bimodal branch predictor
BTB has LRU replacement policy
ITLB has LRU replacement policy
DTLB has LRU replacement policy
STLB has LRU replacement policy
L1I has LRU replacement policy
L1D has LRU replacement policy
L2C has LRU replacement policy
LLC has LRU replacement policy
Heartbeat CPU 0 instructions: 10000002 cycles: 3333435 heartbeat IPC: 2.99991 cumulative IPC: 2.99991 (Simulation time: 0 hr 0 min 6 sec) 
Heartbeat CPU 0 instructions: 20000000 cycles: 9670155 heartbeat IPC: 1.5781 cumulative IPC: 2.06822 (Simulation time: 0 hr 0 min 20 sec) 

Warmup complete CPU 0 instructions: 25000002 cycles: 13112386 (Simulation time: 0 hr 0 min 28 sec) 

Heartbeat CPU 0 instructions: 30000003 cycles: 107855676 heartbeat IPC: 0.101848 cumulative IPC: 0.0527742 (Simulation time: 0 hr 1 min 2 sec) 
Heartbeat CPU 0 instructions: 40000001 cycles: 297446788 heartbeat IPC: 0.0527451 cumulative IPC: 0.0527548 (Simulation time: 0 hr 2 min 9 sec) 
Heartbeat CPU 0 instructions: 50000001 cycles: 486944337 heartbeat IPC: 0.0527711 cumulative IPC: 0.0527613 (Simulation time: 0 hr 3 min 16 sec) 
Finished CPU 0 instructions: 25000000 cycles: 473831952 cumulative IPC: 0.0527613 (Simulation time: 0 hr 3 min 16 sec) 

ChampSim completed all CPUs

Region of Interest Statistics

CPU 0 cumulative IPC: 0.0527613 instructions: 25000000 cycles: 473831952
ITLB TOTAL     ACCESS:    7629435  HIT:    7629435  MISS:          0  HIT %:        100  MISS %:          0   MPKI: 0
ITLB LOAD TRANSLATION ACCESS:    7629435  HIT:    7629435  MISS:          0  HIT %:        100  MISS %:          0   MPKI: 0
ITLB PREFETCH  REQUESTED:          0  ISSUED:          0  USEFUL:          0  USELESS:          0
ITLB USEFUL LOAD PREFETCHES:          0 PREFETCH ISSUED TO LOWER LEVEL:          0  ACCURACY: -nan
ITLB TIMELY PREFETCHES:          0 LATE PREFETCHES: 0 DROPPED PREFETCHES: 0
ITLB PREFETCHES SAME FILL-ORIGIN LEVEL: 0 DIFFERENT FILL-ORIGIN LEVEL: 0
ITLB AVERAGE MISS LATENCY: -nan cycles
ITLB RQ	ACCESS:    7757506	FORWARD:          0	MERGED:     128071	TO_CACHE:    7629435

DTLB TOTAL     ACCESS:    8508057  HIT:    5590424  MISS:    2917633  HIT %:    65.7074  MISS %:    34.2926   MPKI: 116.705
DTLB LOAD TRANSLATION ACCESS:    8508057  HIT:    5590424  MISS:    2917633  HIT %:    65.7074  MISS %:    34.2926   MPKI: 116.705
DTLB PREFETCH  REQUESTED:          0  ISSUED:          0  USEFUL:          0  USELESS:          0
DTLB USEFUL LOAD PREFETCHES:          0 PREFETCH ISSUED TO LOWER LEVEL:          0  ACCURACY: -nan
DTLB TIMELY PREFETCHES:          0 LATE PREFETCHES: 0 DROPPED PREFETCHES: 0
DTLB PREFETCHES SAME FILL-ORIGIN LEVEL: 0 DIFFERENT FILL-ORIGIN LEVEL: 0
DTLB AVERAGE MISS LATENCY: 9.22373 cycles
DTLB RQ	ACCESS:    8581701	FORWARD:          0	MERGED:      72860	TO_CACHE:    8508841

STLB TOTAL     ACCESS:    2917632  HIT:    2912822  MISS:       4810  HIT %:    99.8351  MISS %:    0.16486   MPKI: 0.1924
STLB LOAD TRANSLATION ACCESS:    2917632  HIT:    2912822  MISS:       4810  HIT %:    99.8351  MISS %:    0.16486   MPKI: 0.1924
STLB PREFETCH  REQUESTED:          0  ISSUED:          0  USEFUL:          0  USELESS:          0
STLB USEFUL LOAD PREFETCHES:          0 PREFETCH ISSUED TO LOWER LEVEL:          0  ACCURACY: -nan
STLB TIMELY PREFETCHES:          0 LATE PREFETCHES: 0 DROPPED PREFETCHES: 0
STLB PREFETCHES SAME FILL-ORIGIN LEVEL: 0 DIFFERENT FILL-ORIGIN LEVEL: 0
STLB AVERAGE MISS LATENCY: 130.311 cycles
STLB RQ	ACCESS:    2917632	FORWARD:          0	MERGED:          0	TO_CACHE:    2917632

STLB Hit, L1D data hit: 0
STLB Hit, L2C data hit: 0
STLB Hit, LLC data hit: 0
STLB Hit, LLC data miss: 0
STLB STLB hints to L2: 0
L1D TOTAL     ACCESS:    8032649  HIT:    3481017  MISS:    4551632  HIT %:    43.3359  MISS %:    56.6641   MPKI: 182.065
L1D LOAD      ACCESS:    7745819  HIT:    3194187  MISS:    4551632  HIT %:    41.2376  MISS %:    58.7624   MPKI: 182.065
L1D RFO       ACCESS:     286830  HIT:     286830  MISS:          0  HIT %:        100  MISS %:          0   MPKI: 0
L1D PREFETCH  REQUESTED:          0  ISSUED:          0  USEFUL:          0  USELESS:          0
L1D USEFUL LOAD PREFETCHES:          0 PREFETCH ISSUED TO LOWER LEVEL:          0  ACCURACY: -nan
L1D TIMELY PREFETCHES:          0 LATE PREFETCHES: 0 DROPPED PREFETCHES: 0
L1D PREFETCHES SAME FILL-ORIGIN LEVEL: 0 DIFFERENT FILL-ORIGIN LEVEL: 0
L1D AVERAGE MISS LATENCY: 96.6484 cycles
L1D RQ	ACCESS:    9849909	FORWARD:          0	MERGED:    1555038	TO_CACHE:    8294871
L1D WQ	ACCESS:     286830	FORWARD:          0	MERGED:          0	TO_CACHE:     286830

L1D UNIQUE REGIONS ACCESSED: 0
L1D REGIONS CONFLICTS: 0
L1D Cross Page Prefetch Requests: 0
L1D Same Page Prefetch Requests: 0
L1D ROI Sum of L1D PQ occupancy: 0
L1D PREFETCHES PUSHED FROM L2C: 0
L1I TOTAL     ACCESS:    7757506  HIT:    7757506  MISS:          0  HIT %:        100  MISS %:          0   MPKI: 0
L1I LOAD      ACCESS:    7757506  HIT:    7757506  MISS:          0  HIT %:        100  MISS %:          0   MPKI: 0
L1I PREFETCH  REQUESTED:          0  ISSUED:          0  USEFUL:          0  USELESS:          0
L1I USEFUL LOAD PREFETCHES:          0 PREFETCH ISSUED TO LOWER LEVEL:          0  ACCURACY: -nan
L1I TIMELY PREFETCHES:          0 LATE PREFETCHES: 0 DROPPED PREFETCHES: 0
L1I PREFETCHES SAME FILL-ORIGIN LEVEL: 0 DIFFERENT FILL-ORIGIN LEVEL: 0
L1I AVERAGE MISS LATENCY: -nan cycles
L1I RQ	ACCESS:    9040044	FORWARD:          0	MERGED:    1282538	TO_CACHE:    7757506

BTB TOTAL     ACCESS:    4781548  HIT:    4781545  MISS:          3  HIT %:    99.9999  MISS %: 6.27412e-05   MPKI: 0.00012
BTB BRANCH_DIRECT_JUMP	ACCESS:          0  HIT:          0  MISS:          0
BTB BRANCH_INDIRECT	ACCESS:          0  HIT:          0  MISS:          0
BTB BRANCH_CONDITIONAL	ACCESS:    4781548  HIT:    4781545  MISS:          3
BTB BRANCH_DIRECT_CALL	ACCESS:          0  HIT:          0  MISS:          0
BTB BRANCH_INDIRECT_CALL	ACCESS:          0  HIT:          0  MISS:          0
BTB BRANCH_RETURN	ACCESS:          0  HIT:          0  MISS:          0
BTB BRANCH_OTHER ACCESS:          0  HIT:          0  MISS:          0

L2C TOTAL     ACCESS:    4567219  HIT:    1174542  MISS:    3392677  HIT %:    25.7168  MISS %:    74.2832   MPKI: 135.707
L2C LOAD      ACCESS:    4551632  HIT:    1159750  MISS:    3391882  HIT %:    25.4799  MISS %:    74.5201   MPKI: 135.675
L2C DATA LOAD MPKI: 135.675
L2C INSTRUCTION LOAD MPKI: 0
L2C WRITEBACK ACCESS:      10777  HIT:      10772  MISS:          5  HIT %:    99.9536  MISS %:  0.0463951   MPKI: 0.0002
L2C LOAD TRANSLATION ACCESS:       4810  HIT:       4020  MISS:        790  HIT %:    83.5759  MISS %:    16.4241   MPKI: 0.0316
L2C PREFETCH  REQUESTED:          0  ISSUED:          0  USEFUL:          0  USELESS:          0
L2C USEFUL LOAD PREFETCHES:          0 PREFETCH ISSUED TO LOWER LEVEL:          0  ACCURACY: -nan
L2C TIMELY PREFETCHES:          0 LATE PREFETCHES: 0 DROPPED PREFETCHES: 0
L2C PREFETCHES SAME FILL-ORIGIN LEVEL: 0 DIFFERENT FILL-ORIGIN LEVEL: 0
L2C AVERAGE MISS LATENCY: 109.551 cycles
L2C RQ	ACCESS:    4556442	FORWARD:          0	MERGED:          0	TO_CACHE:    4556442
L2C WQ	ACCESS:      10777	FORWARD:          0	MERGED:          0	TO_CACHE:      10777

L2C Instructions Evicting Data 0
L2C Translations Evicting Data 790
L2C Data Evicting Data 3391091
L2C Instructions Evicting Instructions 0
L2C Translations Evicting Instructions 0
L2C Data Evicting Instructions 0
L2C Instructions Evicting Translations 0
L2C Translations Evicting Translations 0
L2C Data Evicting Translations 791
L2C Dense regions hint from L2: 0
PSCL5 TOTAL     ACCESS:       4810  HIT:       4810  MISS:          0  HIT %:        100  MISS %:          0   MPKI: 0
PSCL5 LOAD TRANSLATION ACCESS:       4810  HIT:       4810  MISS:          0  HIT %:        100  MISS %:          0   MPKI: 0
PSCL5 PREFETCH  REQUESTED:          0  ISSUED:          0  USEFUL:          0  USELESS:          0
PSCL5 USEFUL LOAD PREFETCHES:          0 PREFETCH ISSUED TO LOWER LEVEL:          0  ACCURACY: -nan
PSCL5 TIMELY PREFETCHES:          0 LATE PREFETCHES: 0 DROPPED PREFETCHES: 0
PSCL5 PREFETCHES SAME FILL-ORIGIN LEVEL: 0 DIFFERENT FILL-ORIGIN LEVEL: 0

PSCL4 TOTAL     ACCESS:       4810  HIT:       4810  MISS:          0  HIT %:        100  MISS %:          0   MPKI: 0
PSCL4 LOAD TRANSLATION ACCESS:       4810  HIT:       4810  MISS:          0  HIT %:        100  MISS %:          0   MPKI: 0
PSCL4 PREFETCH  REQUESTED:          0  ISSUED:          0  USEFUL:          0  USELESS:          0
PSCL4 USEFUL LOAD PREFETCHES:          0 PREFETCH ISSUED TO LOWER LEVEL:          0  ACCURACY: -nan
PSCL4 TIMELY PREFETCHES:          0 LATE PREFETCHES: 0 DROPPED PREFETCHES: 0
PSCL4 PREFETCHES SAME FILL-ORIGIN LEVEL: 0 DIFFERENT FILL-ORIGIN LEVEL: 0

PSCL3 TOTAL     ACCESS:       4810  HIT:       4810  MISS:          0  HIT %:        100  MISS %:          0   MPKI: 0
PSCL3 LOAD TRANSLATION ACCESS:       4810  HIT:       4810  MISS:          0  HIT %:        100  MISS %:          0   MPKI: 0
PSCL3 PREFETCH  REQUESTED:          0  ISSUED:          0  USEFUL:          0  USELESS:          0
PSCL3 USEFUL LOAD PREFETCHES:          0 PREFETCH ISSUED TO LOWER LEVEL:          0  ACCURACY: -nan
PSCL3 TIMELY PREFETCHES:          0 LATE PREFETCHES: 0 DROPPED PREFETCHES: 0
PSCL3 PREFETCHES SAME FILL-ORIGIN LEVEL: 0 DIFFERENT FILL-ORIGIN LEVEL: 0

PSCL2 TOTAL     ACCESS:       4810  HIT:       4802  MISS:          8  HIT %:    99.8337  MISS %:    0.16632   MPKI: 0.00032
PSCL2 LOAD TRANSLATION ACCESS:       4810  HIT:       4802  MISS:          8  HIT %:    99.8337  MISS %:    0.16632   MPKI: 0.00032
PSCL2 PREFETCH  REQUESTED:          0  ISSUED:          0  USEFUL:          0  USELESS:          0
PSCL2 USEFUL LOAD PREFETCHES:          0 PREFETCH ISSUED TO LOWER LEVEL:          0  ACCURACY: -nan
PSCL2 TIMELY PREFETCHES:          0 LATE PREFETCHES: 0 DROPPED PREFETCHES: 0
PSCL2 PREFETCHES SAME FILL-ORIGIN LEVEL: 0 DIFFERENT FILL-ORIGIN LEVEL: 0

LLC TOTAL     ACCESS:    3401708  HIT:    1684638  MISS:    1717070  HIT %:    49.5233  MISS %:    50.4767   MPKI: 68.6828
LLC LOAD      ACCESS:    3391882  HIT:    1675440  MISS:    1716442  HIT %:    49.3956  MISS %:    50.6044   MPKI: 68.6577
LLC WRITEBACK ACCESS:       9036  HIT:       9020  MISS:         16  HIT %:    99.8229  MISS %:   0.177069   MPKI: 0.00064
LLC LOAD TRANSLATION ACCESS:        790  HIT:        178  MISS:        612  HIT %:    22.5316  MISS %:    77.4684   MPKI: 0.02448
LLC PREFETCH  REQUESTED:          0  ISSUED:          0  USEFUL:          0  USELESS:          0
LLC USEFUL LOAD PREFETCHES:          0 PREFETCH ISSUED TO LOWER LEVEL:          0  ACCURACY: -nan
LLC TIMELY PREFETCHES:          0 LATE PREFETCHES: 0 DROPPED PREFETCHES: 0
LLC PREFETCHES SAME FILL-ORIGIN LEVEL: 0 DIFFERENT FILL-ORIGIN LEVEL: 0
LLC AVERAGE MISS LATENCY: 157.119 cycles
LLC RQ	ACCESS:    3392672	FORWARD:          0	MERGED:          0	TO_CACHE:    3392672
LLC WQ	ACCESS:       9036	FORWARD:          0	MERGED:          0	TO_CACHE:       9036

LLC Dense regions hint to LLC: 0

RAW hits: 0
Loads Generated: 9849910
Loads sent to L1D: 9849909
Stores Generated: 286830
Stores sent to L1D: 286830
Major fault: 0 Minor fault: 10927
Allocated PAGES: 10927

DRAM Statistics
 CHANNEL 0
 RQ ROW_BUFFER_HIT:     247756  ROW_BUFFER_MISS:    1469298
 DBUS_CONGESTED:          0
 WQ ROW_BUFFER_HIT:       2154  ROW_BUFFER_MISS:       6986  FULL:          0

 AVG_CONGESTED_CYCLE: -
 All warmup complete: 2
Channel 0 Bank busy for read cycles: 0
Channel 0 Bank busy for write cycles: 0
Channel 0
Rank 0
0banks busy for read cycles: 259548321
0banks busy for write cycles: 8825
1banks busy for read cycles: 193889318
1banks busy for write cycles: 1772779
2banks busy for read cycles: 16785854
2banks busy for write cycles: 59325
3banks busy for read cycles: 1738223
3banks busy for write cycles: 2787
4banks busy for read cycles: 25773
4banks busy for write cycles: 0
5banks busy for read cycles: 748
5banks busy for write cycles: 0
6banks busy for read cycles: 0
6banks busy for write cycles: 0
7banks busy for read cycles: 0
7banks busy for write cycles: 0
8banks busy for read cycles: 0
8banks busy for write cycles: 0

CPU 0 Branch Prediction Accuracy: 96.4809% MPKI: 6.73068 Average ROB Occupancy at Mispredict: 128.408
Branch types
NOT_BRANCH: 20218453 80.8738%
BRANCH_DIRECT_JUMP: 0 0%
BRANCH_INDIRECT: 0 0%
BRANCH_CONDITIONAL: 4781548 19.1262%
BRANCH_DIRECT_CALL: 0 0%
BRANCH_INDIRECT_CALL: 0 0%
BRANCH_RETURN: 0 0%
BRANCH_OTHER: 0 0%

DRAM PAGES: 1048576
Allocated PAGES: 10927
