
*** ChampSim Multicore Out-of-Order Simulator ***

Warmup Instructions: 25000000
Simulation Instructions: 25000000
Number of CPUs: 1
LLC sets: 2048
LLC ways: 16
Off-chip DRAM Size: 4096 MB Channels: 1 Width: 64-bit Data Rate: 6400 MT/s
CPU 0 runs ../traces/pr-3.trace.gz
.gz
CPU 0 Bimodal branch predictor
BTB has LRU replacement policy
ITLB has LRU replacement policy
DTLB has LRU replacement policy
STLB has LRU replacement policy
L1I has LRU replacement policy
CPU 0 L1D - Pythia Preftecher 
L1D has LRU replacement policy
L2C has LRU replacement policy
LLC has LRU replacement policy
Heartbeat CPU 0 instructions: 10000002 cycles: 3333441 heartbeat IPC: 2.9999 cumulative IPC: 2.9999 (Simulation time: 0 hr 0 min 56 sec) 
Heartbeat CPU 0 instructions: 20000002 cycles: 10261188 heartbeat IPC: 1.44347 cumulative IPC: 1.94909 (Simulation time: 0 hr 2 min 32 sec) 

Warmup complete CPU 0 instructions: 25000004 cycles: 14031431 (Simulation time: 0 hr 3 min 23 sec) 

Heartbeat CPU 0 instructions: 30000001 cycles: 114218456 heartbeat IPC: 0.0961934 cumulative IPC: 0.0499066 (Simulation time: 0 hr 4 min 48 sec) 
Heartbeat CPU 0 instructions: 40000000 cycles: 316243407 heartbeat IPC: 0.0494988 cumulative IPC: 0.049634 (Simulation time: 0 hr 7 min 39 sec) 
Heartbeat CPU 0 instructions: 50000000 cycles: 519114032 heartbeat IPC: 0.0492925 cumulative IPC: 0.0494968 (Simulation time: 0 hr 10 min 34 sec) 
Finished CPU 0 instructions: 25000001 cycles: 505082623 cumulative IPC: 0.0494969 (Simulation time: 0 hr 10 min 34 sec) 

ChampSim completed all CPUs

Region of Interest Statistics

CPU 0 cumulative IPC: 0.0494969 instructions: 25000001 cycles: 505082623
ITLB TOTAL     ACCESS:    7489451  HIT:    7489451  MISS:          0  HIT %:        100  MISS %:          0   MPKI: 0
ITLB LOAD TRANSLATION ACCESS:    7489451  HIT:    7489451  MISS:          0  HIT %:        100  MISS %:          0   MPKI: 0
ITLB PREFETCH  REQUESTED:          0  ISSUED:          0  USEFUL:          0  USELESS:          0
ITLB USEFUL LOAD PREFETCHES:          0 PREFETCH ISSUED TO LOWER LEVEL:          0  ACCURACY: -nan
ITLB TIMELY PREFETCHES:          0 LATE PREFETCHES: 0 DROPPED PREFETCHES: 0
ITLB PREFETCHES SAME FILL-ORIGIN LEVEL: 0 DIFFERENT FILL-ORIGIN LEVEL: 0
ITLB AVERAGE MISS LATENCY: -nan cycles
ITLB RQ	ACCESS:    7622447	FORWARD:          0	MERGED:     132996	TO_CACHE:    7489451

DTLB TOTAL     ACCESS:    8516659  HIT:    5468280  MISS:    3048379  HIT %:    64.2069  MISS %:    35.7931   MPKI: 121.935
DTLB LOAD TRANSLATION ACCESS:    8516659  HIT:    5468280  MISS:    3048379  HIT %:    64.2069  MISS %:    35.7931   MPKI: 121.935
DTLB PREFETCH  REQUESTED:          0  ISSUED:          0  USEFUL:          0  USELESS:          0
DTLB USEFUL LOAD PREFETCHES:          0 PREFETCH ISSUED TO LOWER LEVEL:          0  ACCURACY: -nan
DTLB TIMELY PREFETCHES:          0 LATE PREFETCHES: 0 DROPPED PREFETCHES: 0
DTLB PREFETCHES SAME FILL-ORIGIN LEVEL: 0 DIFFERENT FILL-ORIGIN LEVEL: 0
DTLB AVERAGE MISS LATENCY: 9.22702 cycles
DTLB RQ	ACCESS:    8593383	FORWARD:          0	MERGED:      75972	TO_CACHE:    8517411

STLB TOTAL     ACCESS:   11087504  HIT:   11082697  MISS:       4807  HIT %:    99.9566  MISS %:  0.0433551   MPKI: 0.19228
STLB LOAD TRANSLATION ACCESS:    3048378  HIT:    3043571  MISS:       4807  HIT %:    99.8423  MISS %:    0.15769   MPKI: 0.19228
STLB TRANSLATION FROM L1D PREFETCHER ACCESS:    8039126  HIT:    8039126  MISS:          0  HIT %:        100  MISS %:          0   MPKI: 0
STLB PREFETCH  REQUESTED:          0  ISSUED:          0  USEFUL:          0  USELESS:          0
STLB USEFUL LOAD PREFETCHES:          0 PREFETCH ISSUED TO LOWER LEVEL:          0  ACCURACY: -nan
STLB TIMELY PREFETCHES:          0 LATE PREFETCHES: 0 DROPPED PREFETCHES: 0
STLB PREFETCHES SAME FILL-ORIGIN LEVEL: 0 DIFFERENT FILL-ORIGIN LEVEL: 0
STLB AVERAGE MISS LATENCY: 139.168 cycles
STLB RQ	ACCESS:   23620599	FORWARD:          0	MERGED:   12533093	TO_CACHE:   11087506

STLB Hit, L1D data hit: 0
STLB Hit, L2C data hit: 0
STLB Hit, LLC data hit: 0
STLB Hit, LLC data miss: 0
STLB STLB hints to L2: 0
L1D TOTAL     ACCESS:   24596395  HIT:   13228470  MISS:   11367925  HIT %:    53.7821  MISS %:    46.2179   MPKI: 454.717
L1D LOAD      ACCESS:    8243334  HIT:    3937380  MISS:    4305954  HIT %:    47.7644  MISS %:    52.2356   MPKI: 172.238
L1D RFO       ACCESS:     297908  HIT:     297908  MISS:          0  HIT %:        100  MISS %:          0   MPKI: 0
L1D PREFETCH  ACCESS:   16055153  HIT:    8993182  MISS:    7061971  HIT %:    56.0143  MISS %:    43.9857   MPKI: 282.479
AGUS PREFETCH L1 MISS: 0
L1D PREFETCH  REQUESTED:   41397353  ISSUED:   41397352  USEFUL:     368183  USELESS:    6693746
L1D USEFUL LOAD PREFETCHES:     368183 PREFETCH ISSUED TO LOWER LEVEL:    7089952  ACCURACY: 5.19303
L1D TIMELY PREFETCHES:     368183 LATE PREFETCHES: 27982 DROPPED PREFETCHES: 0
L1D PREFETCHES SAME FILL-ORIGIN LEVEL: 7089952 DIFFERENT FILL-ORIGIN LEVEL: 0
L1D AVERAGE MISS LATENCY: 108.337 cycles
L1D RQ	ACCESS:    9844112	FORWARD:          0	MERGED:    1548637	TO_CACHE:    8295475
L1D WQ	ACCESS:     297908	FORWARD:        195	MERGED:          0	TO_CACHE:     297908
L1D PQ	ACCESS:   20825131	FORWARD:          0	MERGED:     252715	TO_CACHE:   20572221

L1D UNIQUE REGIONS ACCESSED: 0
L1D REGIONS CONFLICTS: 0
L1D Cross Page Prefetch Requests: 0
L1D Same Page Prefetch Requests: 40361689
L1D ROI Sum of L1D PQ occupancy: 273083463
L1D PREFETCHES PUSHED FROM L2C: 0
L1I TOTAL     ACCESS:    7622447  HIT:    7622447  MISS:          0  HIT %:        100  MISS %:          0   MPKI: 0
L1I LOAD      ACCESS:    7622447  HIT:    7622447  MISS:          0  HIT %:        100  MISS %:          0   MPKI: 0
L1I PREFETCH  REQUESTED:          0  ISSUED:          0  USEFUL:          0  USELESS:          0
L1I USEFUL LOAD PREFETCHES:          0 PREFETCH ISSUED TO LOWER LEVEL:          0  ACCURACY: -nan
L1I TIMELY PREFETCHES:          0 LATE PREFETCHES: 0 DROPPED PREFETCHES: 0
L1I PREFETCHES SAME FILL-ORIGIN LEVEL: 0 DIFFERENT FILL-ORIGIN LEVEL: 0
L1I AVERAGE MISS LATENCY: -nan cycles
L1I RQ	ACCESS:    8968154	FORWARD:          0	MERGED:    1345707	TO_CACHE:    7622447

BTB TOTAL     ACCESS:    4773053  HIT:    4773050  MISS:          3  HIT %:    99.9999  MISS %: 6.28529e-05   MPKI: 0.00012
BTB BRANCH_DIRECT_JUMP	ACCESS:          0  HIT:          0  MISS:          0
BTB BRANCH_INDIRECT	ACCESS:          0  HIT:          0  MISS:          0
BTB BRANCH_CONDITIONAL	ACCESS:    4773053  HIT:    4773050  MISS:          3
BTB BRANCH_DIRECT_CALL	ACCESS:          0  HIT:          0  MISS:          0
BTB BRANCH_INDIRECT_CALL	ACCESS:          0  HIT:          0  MISS:          0
BTB BRANCH_RETURN	ACCESS:          0  HIT:          0  MISS:          0
BTB BRANCH_OTHER ACCESS:          0  HIT:          0  MISS:          0

L2C TOTAL     ACCESS:   11387865  HIT:    2008896  MISS:    9378969  HIT %:    17.6407  MISS %:    82.3593   MPKI: 375.159
L2C LOAD      ACCESS:    4277970  HIT:     899959  MISS:    3378011  HIT %:    21.0371  MISS %:    78.9629   MPKI: 135.12
L2C DATA LOAD MPKI: 135.12
L2C INSTRUCTION LOAD MPKI: 0
L2C PREFETCH  ACCESS:    7089953  HIT:    1090174  MISS:    5999779  HIT %:    15.3763  MISS %:    84.6237   MPKI: 239.991
AGUS PREFETCH L1 MISS: 0
L2C DATA PREFETCH MPKI: 239.991
L2C INSTRUCTION PREFETCH MPKI: 0
L2C WRITEBACK ACCESS:      15135  HIT:      15118  MISS:         17  HIT %:    99.8877  MISS %:   0.112322   MPKI: 0.00068
L2C LOAD TRANSLATION ACCESS:       4807  HIT:       3645  MISS:       1162  HIT %:    75.8269  MISS %:    24.1731   MPKI: 0.04648
L2C PREFETCH  REQUESTED:          0  ISSUED:          0  USEFUL:     204047  USELESS:    5795791
L2C USEFUL LOAD PREFETCHES:     204047 PREFETCH ISSUED TO LOWER LEVEL:    5999778  ACCURACY: 3.40091
L2C TIMELY PREFETCHES:     204047 LATE PREFETCHES: 0 DROPPED PREFETCHES: 0
L2C PREFETCHES SAME FILL-ORIGIN LEVEL: 0 DIFFERENT FILL-ORIGIN LEVEL: 0
L2C AVERAGE MISS LATENCY: 113.115 cycles
L2C RQ	ACCESS:    4282779	FORWARD:          0	MERGED:          0	TO_CACHE:    4282777
L2C WQ	ACCESS:      15135	FORWARD:          2	MERGED:          0	TO_CACHE:      15135
L2C PQ	ACCESS:    7089952	FORWARD:          0	MERGED:          0	TO_CACHE:    7089952

L2C Instructions Evicting Data 0
L2C Translations Evicting Data 1162
L2C Data Evicting Data 9376629
L2C Instructions Evicting Instructions 0
L2C Translations Evicting Instructions 0
L2C Data Evicting Instructions 0
L2C Instructions Evicting Translations 0
L2C Translations Evicting Translations 0
L2C Data Evicting Translations 1161
L2C Dense regions hint from L2: 0
PSCL5 TOTAL     ACCESS:       4807  HIT:       4807  MISS:          0  HIT %:        100  MISS %:          0   MPKI: 0
PSCL5 LOAD TRANSLATION ACCESS:       4807  HIT:       4807  MISS:          0  HIT %:        100  MISS %:          0   MPKI: 0
PSCL5 PREFETCH  REQUESTED:          0  ISSUED:          0  USEFUL:          0  USELESS:          0
PSCL5 USEFUL LOAD PREFETCHES:          0 PREFETCH ISSUED TO LOWER LEVEL:          0  ACCURACY: -nan
PSCL5 TIMELY PREFETCHES:          0 LATE PREFETCHES: 0 DROPPED PREFETCHES: 0
PSCL5 PREFETCHES SAME FILL-ORIGIN LEVEL: 0 DIFFERENT FILL-ORIGIN LEVEL: 0

PSCL4 TOTAL     ACCESS:       4807  HIT:       4807  MISS:          0  HIT %:        100  MISS %:          0   MPKI: 0
PSCL4 LOAD TRANSLATION ACCESS:       4807  HIT:       4807  MISS:          0  HIT %:        100  MISS %:          0   MPKI: 0
PSCL4 PREFETCH  REQUESTED:          0  ISSUED:          0  USEFUL:          0  USELESS:          0
PSCL4 USEFUL LOAD PREFETCHES:          0 PREFETCH ISSUED TO LOWER LEVEL:          0  ACCURACY: -nan
PSCL4 TIMELY PREFETCHES:          0 LATE PREFETCHES: 0 DROPPED PREFETCHES: 0
PSCL4 PREFETCHES SAME FILL-ORIGIN LEVEL: 0 DIFFERENT FILL-ORIGIN LEVEL: 0

PSCL3 TOTAL     ACCESS:       4807  HIT:       4807  MISS:          0  HIT %:        100  MISS %:          0   MPKI: 0
PSCL3 LOAD TRANSLATION ACCESS:       4807  HIT:       4807  MISS:          0  HIT %:        100  MISS %:          0   MPKI: 0
PSCL3 PREFETCH  REQUESTED:          0  ISSUED:          0  USEFUL:          0  USELESS:          0
PSCL3 USEFUL LOAD PREFETCHES:          0 PREFETCH ISSUED TO LOWER LEVEL:          0  ACCURACY: -nan
PSCL3 TIMELY PREFETCHES:          0 LATE PREFETCHES: 0 DROPPED PREFETCHES: 0
PSCL3 PREFETCHES SAME FILL-ORIGIN LEVEL: 0 DIFFERENT FILL-ORIGIN LEVEL: 0

PSCL2 TOTAL     ACCESS:       4807  HIT:       4798  MISS:          9  HIT %:    99.8128  MISS %:   0.187227   MPKI: 0.00036
PSCL2 LOAD TRANSLATION ACCESS:       4807  HIT:       4798  MISS:          9  HIT %:    99.8128  MISS %:   0.187227   MPKI: 0.00036
PSCL2 PREFETCH  REQUESTED:          0  ISSUED:          0  USEFUL:          0  USELESS:          0
PSCL2 USEFUL LOAD PREFETCHES:          0 PREFETCH ISSUED TO LOWER LEVEL:          0  ACCURACY: -nan
PSCL2 TIMELY PREFETCHES:          0 LATE PREFETCHES: 0 DROPPED PREFETCHES: 0
PSCL2 PREFETCHES SAME FILL-ORIGIN LEVEL: 0 DIFFERENT FILL-ORIGIN LEVEL: 0

LLC TOTAL     ACCESS:    9388539  HIT:    4328517  MISS:    5060022  HIT %:    46.1043  MISS %:    53.8957   MPKI: 202.401
LLC LOAD      ACCESS:    3378011  HIT:    1762754  MISS:    1615257  HIT %:    52.1832  MISS %:    47.8168   MPKI: 64.6103
LLC PREFETCH  ACCESS:    5999779  HIT:    2555937  MISS:    3443842  HIT %:    42.6005  MISS %:    57.3995   MPKI: 137.754
AGUS PREFETCH L1 MISS: 0
LLC WRITEBACK ACCESS:       9587  HIT:       9435  MISS:        152  HIT %:    98.4145  MISS %:    1.58548   MPKI: 0.00608
LLC LOAD TRANSLATION ACCESS:       1162  HIT:        391  MISS:        771  HIT %:    33.6489  MISS %:    66.3511   MPKI: 0.03084
LLC PREFETCH  REQUESTED:          0  ISSUED:          0  USEFUL:     403854  USELESS:    3040504
LLC USEFUL LOAD PREFETCHES:     403854 PREFETCH ISSUED TO LOWER LEVEL:    3443841  ACCURACY: 11.7268
LLC TIMELY PREFETCHES:     403854 LATE PREFETCHES: 0 DROPPED PREFETCHES: 0
LLC PREFETCHES SAME FILL-ORIGIN LEVEL: 0 DIFFERENT FILL-ORIGIN LEVEL: 0
LLC AVERAGE MISS LATENCY: 153.991 cycles
LLC RQ	ACCESS:    3379173	FORWARD:          0	MERGED:          0	TO_CACHE:    3379173
LLC WQ	ACCESS:       9587	FORWARD:          0	MERGED:          0	TO_CACHE:       9587
LLC PQ	ACCESS:    5999778	FORWARD:          0	MERGED:          0	TO_CACHE:    5999778

LLC Dense regions hint to LLC: 0

RAW hits: 0
Loads Generated: 9844114
Loads sent to L1D: 9844112
Stores Generated: 297908
Stores sent to L1D: 297908
Major fault: 0 Minor fault: 10902
Allocated PAGES: 10902
CPU 0 L1D nextline prefetcher final stats
 Action = 30 : 612619
 Action = 23 : 674441
 Action = 16 : 778553
 Action = 11 : 925179
 Action = 10 : 985551
 Action = 22 : 691776
 Action = 5 : 1216507
 Action = 4 : 1297129
 Action = 32 : 607788
 Action = -3 : 1341520
 Action = 12 : 918867
 Action = -6 : 1103788
 Action = 3 : 1322749
 Action = 1 : 1510230
 Action = -1 : 1493257
 Action = 0 : 133160

DRAM Statistics
 CHANNEL 0
 RQ ROW_BUFFER_HIT:    1383335  ROW_BUFFER_MISS:    3676534
 DBUS_CONGESTED:        116
 WQ ROW_BUFFER_HIT:       3694  ROW_BUFFER_MISS:       5743  FULL:          0

 AVG_CONGESTED_CYCLE: 5
 All warmup complete: 2
Channel 0 Bank busy for read cycles: 0
Channel 0 Bank busy for write cycles: 0
Channel 0
Rank 0
0banks busy for read cycles: 170149077
0banks busy for write cycles: 8272
1banks busy for read cycles: 146405569
1banks busy for write cycles: 2669067
2banks busy for read cycles: 104827427
2banks busy for write cycles: 282211
3banks busy for read cycles: 62912457
3banks busy for write cycles: 36249
4banks busy for read cycles: 13754401
4banks busy for write cycles: 6160
5banks busy for read cycles: 3441036
5banks busy for write cycles: 1074
6banks busy for read cycles: 505452
6banks busy for write cycles: 207
7banks busy for read cycles: 74697
7banks busy for write cycles: 0
8banks busy for read cycles: 9268
8banks busy for write cycles: 0

CPU 0 Branch Prediction Accuracy: 96.3407% MPKI: 6.98632 Average ROB Occupancy at Mispredict: 131.185
Branch types
NOT_BRANCH: 20226694 80.9068%
BRANCH_DIRECT_JUMP: 0 0%
BRANCH_INDIRECT: 0 0%
BRANCH_CONDITIONAL: 4773054 19.0922%
BRANCH_DIRECT_CALL: 0 0%
BRANCH_INDIRECT_CALL: 0 0%
BRANCH_RETURN: 0 0%
BRANCH_OTHER: 0 0%

DRAM PAGES: 1048576
Allocated PAGES: 10902
