
*** ChampSim Multicore Out-of-Order Simulator ***

Warmup Instructions: 25000000
Simulation Instructions: 25000000
Number of CPUs: 1
LLC sets: 2048
LLC ways: 16
Off-chip DRAM Size: 4096 MB Channels: 1 Width: 64-bit Data Rate: 6400 MT/s
CPU 0 runs ../traces/pr-5.trace.gz
.gz
CPU 0 Bimodal branch predictor
BTB has LRU replacement policy
ITLB has LRU replacement policy
DTLB has LRU replacement policy
STLB has LRU replacement policy
L1I has LRU replacement policy
CPU 0 L1D - Pythia Preftecher 
L1D has LRU replacement policy
L2C has LRU replacement policy
LLC has LRU replacement policy
Heartbeat CPU 0 instructions: 10000001 cycles: 3333438 heartbeat IPC: 2.99991 cumulative IPC: 2.99991 (Simulation time: 0 hr 0 min 57 sec) 
Heartbeat CPU 0 instructions: 20000001 cycles: 10316374 heartbeat IPC: 1.43206 cumulative IPC: 1.93867 (Simulation time: 0 hr 2 min 43 sec) 

Warmup complete CPU 0 instructions: 25000004 cycles: 14104599 (Simulation time: 0 hr 3 min 40 sec) 

Heartbeat CPU 0 instructions: 30000000 cycles: 117179612 heartbeat IPC: 0.0935775 cumulative IPC: 0.0485083 (Simulation time: 0 hr 5 min 7 sec) 
Heartbeat CPU 0 instructions: 40000001 cycles: 327478239 heartbeat IPC: 0.0475514 cumulative IPC: 0.0478662 (Simulation time: 0 hr 8 min 2 sec) 
Heartbeat CPU 0 instructions: 50000003 cycles: 536466974 heartbeat IPC: 0.0478495 cumulative IPC: 0.0478595 (Simulation time: 0 hr 11 min 0 sec) 
Finished CPU 0 instructions: 25000000 cycles: 522362376 cumulative IPC: 0.0478595 (Simulation time: 0 hr 11 min 0 sec) 

ChampSim completed all CPUs

Region of Interest Statistics

CPU 0 cumulative IPC: 0.0478595 instructions: 25000000 cycles: 522362376
ITLB TOTAL     ACCESS:    7506210  HIT:    7506210  MISS:          0  HIT %:        100  MISS %:          0   MPKI: 0
ITLB LOAD TRANSLATION ACCESS:    7506210  HIT:    7506210  MISS:          0  HIT %:        100  MISS %:          0   MPKI: 0
ITLB PREFETCH  REQUESTED:          0  ISSUED:          0  USEFUL:          0  USELESS:          0
ITLB USEFUL LOAD PREFETCHES:          0 PREFETCH ISSUED TO LOWER LEVEL:          0  ACCURACY: -nan
ITLB TIMELY PREFETCHES:          0 LATE PREFETCHES: 0 DROPPED PREFETCHES: 0
ITLB PREFETCHES SAME FILL-ORIGIN LEVEL: 0 DIFFERENT FILL-ORIGIN LEVEL: 0
ITLB AVERAGE MISS LATENCY: -nan cycles
ITLB RQ	ACCESS:    7639117	FORWARD:          0	MERGED:     132907	TO_CACHE:    7506210

DTLB TOTAL     ACCESS:    8518130  HIT:    5475506  MISS:    3042624  HIT %:    64.2806  MISS %:    35.7194   MPKI: 121.705
DTLB LOAD TRANSLATION ACCESS:    8518130  HIT:    5475506  MISS:    3042624  HIT %:    64.2806  MISS %:    35.7194   MPKI: 121.705
DTLB PREFETCH  REQUESTED:          0  ISSUED:          0  USEFUL:          0  USELESS:          0
DTLB USEFUL LOAD PREFETCHES:          0 PREFETCH ISSUED TO LOWER LEVEL:          0  ACCURACY: -nan
DTLB TIMELY PREFETCHES:          0 LATE PREFETCHES: 0 DROPPED PREFETCHES: 0
DTLB PREFETCHES SAME FILL-ORIGIN LEVEL: 0 DIFFERENT FILL-ORIGIN LEVEL: 0
DTLB AVERAGE MISS LATENCY: 9.2244 cycles
DTLB RQ	ACCESS:    8594268	FORWARD:          0	MERGED:      75310	TO_CACHE:    8518958

STLB TOTAL     ACCESS:   11085886  HIT:   11081079  MISS:       4807  HIT %:    99.9566  MISS %:  0.0433614   MPKI: 0.19228
STLB LOAD TRANSLATION ACCESS:    3042623  HIT:    3037816  MISS:       4807  HIT %:     99.842  MISS %:   0.157989   MPKI: 0.19228
STLB TRANSLATION FROM L1D PREFETCHER ACCESS:    8043263  HIT:    8043263  MISS:          0  HIT %:        100  MISS %:          0   MPKI: 0
STLB PREFETCH  REQUESTED:          0  ISSUED:          0  USEFUL:          0  USELESS:          0
STLB USEFUL LOAD PREFETCHES:          0 PREFETCH ISSUED TO LOWER LEVEL:          0  ACCURACY: -nan
STLB TIMELY PREFETCHES:          0 LATE PREFETCHES: 0 DROPPED PREFETCHES: 0
STLB PREFETCHES SAME FILL-ORIGIN LEVEL: 0 DIFFERENT FILL-ORIGIN LEVEL: 0
STLB AVERAGE MISS LATENCY: 137.138 cycles
STLB RQ	ACCESS:   23587594	FORWARD:          0	MERGED:   12501708	TO_CACHE:   11085886

STLB Hit, L1D data hit: 0
STLB Hit, L2C data hit: 0
STLB Hit, LLC data hit: 0
STLB Hit, LLC data miss: 0
STLB STLB hints to L2: 0
L1D TOTAL     ACCESS:   24604646  HIT:   13285873  MISS:   11318773  HIT %:    53.9974  MISS %:    46.0026   MPKI: 452.751
L1D LOAD      ACCESS:    8252683  HIT:    3957696  MISS:    4294987  HIT %:    47.9565  MISS %:    52.0435   MPKI: 171.799
L1D RFO       ACCESS:     296806  HIT:     296806  MISS:          0  HIT %:        100  MISS %:          0   MPKI: 0
L1D PREFETCH  ACCESS:   16055157  HIT:    9031371  MISS:    7023786  HIT %:    56.2522  MISS %:    43.7478   MPKI: 280.951
AGUS PREFETCH L1 MISS: 0
L1D PREFETCH  REQUESTED:   41363136  ISSUED:   41363136  USEFUL:     369293  USELESS:    6654484
L1D USEFUL LOAD PREFETCHES:     369293 PREFETCH ISSUED TO LOWER LEVEL:    7050940  ACCURACY: 5.2375
L1D TIMELY PREFETCHES:     369293 LATE PREFETCHES: 27155 DROPPED PREFETCHES: 0
L1D PREFETCHES SAME FILL-ORIGIN LEVEL: 7050940 DIFFERENT FILL-ORIGIN LEVEL: 0
L1D AVERAGE MISS LATENCY: 113.305 cycles
L1D RQ	ACCESS:    9844578	FORWARD:          0	MERGED:    1547116	TO_CACHE:    8297462
L1D WQ	ACCESS:     296806	FORWARD:        233	MERGED:          0	TO_CACHE:     296806
L1D PQ	ACCESS:   20818165	FORWARD:          0	MERGED:     272961	TO_CACHE:   20544971

L1D UNIQUE REGIONS ACCESSED: 0
L1D REGIONS CONFLICTS: 0
L1D Cross Page Prefetch Requests: 0
L1D Same Page Prefetch Requests: 40271524
L1D ROI Sum of L1D PQ occupancy: 272687987
L1D PREFETCHES PUSHED FROM L2C: 0
L1I TOTAL     ACCESS:    7639117  HIT:    7639117  MISS:          0  HIT %:        100  MISS %:          0   MPKI: 0
L1I LOAD      ACCESS:    7639117  HIT:    7639117  MISS:          0  HIT %:        100  MISS %:          0   MPKI: 0
L1I PREFETCH  REQUESTED:          0  ISSUED:          0  USEFUL:          0  USELESS:          0
L1I USEFUL LOAD PREFETCHES:          0 PREFETCH ISSUED TO LOWER LEVEL:          0  ACCURACY: -nan
L1I TIMELY PREFETCHES:          0 LATE PREFETCHES: 0 DROPPED PREFETCHES: 0
L1I PREFETCHES SAME FILL-ORIGIN LEVEL: 0 DIFFERENT FILL-ORIGIN LEVEL: 0
L1I AVERAGE MISS LATENCY: -nan cycles
L1I RQ	ACCESS:    8972706	FORWARD:          0	MERGED:    1333589	TO_CACHE:    7639117

BTB TOTAL     ACCESS:    4773850  HIT:    4773847  MISS:          3  HIT %:    99.9999  MISS %: 6.28424e-05   MPKI: 0.00012
BTB BRANCH_DIRECT_JUMP	ACCESS:          0  HIT:          0  MISS:          0
BTB BRANCH_INDIRECT	ACCESS:          0  HIT:          0  MISS:          0
BTB BRANCH_CONDITIONAL	ACCESS:    4773850  HIT:    4773847  MISS:          3
BTB BRANCH_DIRECT_CALL	ACCESS:          0  HIT:          0  MISS:          0
BTB BRANCH_INDIRECT_CALL	ACCESS:          0  HIT:          0  MISS:          0
BTB BRANCH_RETURN	ACCESS:          0  HIT:          0  MISS:          0
BTB BRANCH_OTHER ACCESS:          0  HIT:          0  MISS:          0

L2C TOTAL     ACCESS:   11338685  HIT:    1912386  MISS:    9426299  HIT %:     16.866  MISS %:     83.134   MPKI: 377.052
L2C LOAD      ACCESS:    4267831  HIT:     866558  MISS:    3401273  HIT %:    20.3044  MISS %:    79.6956   MPKI: 136.051
L2C DATA LOAD MPKI: 136.051
L2C INSTRUCTION LOAD MPKI: 0
L2C PREFETCH  ACCESS:    7050937  HIT:    1026973  MISS:    6023964  HIT %:    14.5651  MISS %:    85.4349   MPKI: 240.959
AGUS PREFETCH L1 MISS: 0
L2C DATA PREFETCH MPKI: 240.959
L2C INSTRUCTION PREFETCH MPKI: 0
L2C WRITEBACK ACCESS:      15110  HIT:      15049  MISS:         61  HIT %:    99.5963  MISS %:   0.403706   MPKI: 0.00244
L2C LOAD TRANSLATION ACCESS:       4807  HIT:       3806  MISS:       1001  HIT %:    79.1762  MISS %:    20.8238   MPKI: 0.04004
L2C PREFETCH  REQUESTED:          0  ISSUED:          0  USEFUL:     195383  USELESS:    5828558
L2C USEFUL LOAD PREFETCHES:     195383 PREFETCH ISSUED TO LOWER LEVEL:    6023964  ACCURACY: 3.24343
L2C TIMELY PREFETCHES:     195383 LATE PREFETCHES: 0 DROPPED PREFETCHES: 0
L2C PREFETCHES SAME FILL-ORIGIN LEVEL: 0 DIFFERENT FILL-ORIGIN LEVEL: 0
L2C AVERAGE MISS LATENCY: 118.023 cycles
L2C RQ	ACCESS:    4272639	FORWARD:          0	MERGED:          0	TO_CACHE:    4272638
L2C WQ	ACCESS:      15110	FORWARD:          4	MERGED:          0	TO_CACHE:      15110
L2C PQ	ACCESS:    7050940	FORWARD:          0	MERGED:          0	TO_CACHE:    7050937

L2C Instructions Evicting Data 0
L2C Translations Evicting Data 1001
L2C Data Evicting Data 9424238
L2C Instructions Evicting Instructions 0
L2C Translations Evicting Instructions 0
L2C Data Evicting Instructions 0
L2C Instructions Evicting Translations 0
L2C Translations Evicting Translations 0
L2C Data Evicting Translations 999
L2C Dense regions hint from L2: 0
PSCL5 TOTAL     ACCESS:       4807  HIT:       4807  MISS:          0  HIT %:        100  MISS %:          0   MPKI: 0
PSCL5 LOAD TRANSLATION ACCESS:       4807  HIT:       4807  MISS:          0  HIT %:        100  MISS %:          0   MPKI: 0
PSCL5 PREFETCH  REQUESTED:          0  ISSUED:          0  USEFUL:          0  USELESS:          0
PSCL5 USEFUL LOAD PREFETCHES:          0 PREFETCH ISSUED TO LOWER LEVEL:          0  ACCURACY: -nan
PSCL5 TIMELY PREFETCHES:          0 LATE PREFETCHES: 0 DROPPED PREFETCHES: 0
PSCL5 PREFETCHES SAME FILL-ORIGIN LEVEL: 0 DIFFERENT FILL-ORIGIN LEVEL: 0

PSCL4 TOTAL     ACCESS:       4807  HIT:       4807  MISS:          0  HIT %:        100  MISS %:          0   MPKI: 0
PSCL4 LOAD TRANSLATION ACCESS:       4807  HIT:       4807  MISS:          0  HIT %:        100  MISS %:          0   MPKI: 0
PSCL4 PREFETCH  REQUESTED:          0  ISSUED:          0  USEFUL:          0  USELESS:          0
PSCL4 USEFUL LOAD PREFETCHES:          0 PREFETCH ISSUED TO LOWER LEVEL:          0  ACCURACY: -nan
PSCL4 TIMELY PREFETCHES:          0 LATE PREFETCHES: 0 DROPPED PREFETCHES: 0
PSCL4 PREFETCHES SAME FILL-ORIGIN LEVEL: 0 DIFFERENT FILL-ORIGIN LEVEL: 0

PSCL3 TOTAL     ACCESS:       4807  HIT:       4807  MISS:          0  HIT %:        100  MISS %:          0   MPKI: 0
PSCL3 LOAD TRANSLATION ACCESS:       4807  HIT:       4807  MISS:          0  HIT %:        100  MISS %:          0   MPKI: 0
PSCL3 PREFETCH  REQUESTED:          0  ISSUED:          0  USEFUL:          0  USELESS:          0
PSCL3 USEFUL LOAD PREFETCHES:          0 PREFETCH ISSUED TO LOWER LEVEL:          0  ACCURACY: -nan
PSCL3 TIMELY PREFETCHES:          0 LATE PREFETCHES: 0 DROPPED PREFETCHES: 0
PSCL3 PREFETCHES SAME FILL-ORIGIN LEVEL: 0 DIFFERENT FILL-ORIGIN LEVEL: 0

PSCL2 TOTAL     ACCESS:       4807  HIT:       4799  MISS:          8  HIT %:    99.8336  MISS %:   0.166424   MPKI: 0.00032
PSCL2 LOAD TRANSLATION ACCESS:       4807  HIT:       4799  MISS:          8  HIT %:    99.8336  MISS %:   0.166424   MPKI: 0.00032
PSCL2 PREFETCH  REQUESTED:          0  ISSUED:          0  USEFUL:          0  USELESS:          0
PSCL2 USEFUL LOAD PREFETCHES:          0 PREFETCH ISSUED TO LOWER LEVEL:          0  ACCURACY: -nan
PSCL2 TIMELY PREFETCHES:          0 LATE PREFETCHES: 0 DROPPED PREFETCHES: 0
PSCL2 PREFETCHES SAME FILL-ORIGIN LEVEL: 0 DIFFERENT FILL-ORIGIN LEVEL: 0

LLC TOTAL     ACCESS:    9435832  HIT:    4045921  MISS:    5389911  HIT %:    42.8783  MISS %:    57.1217   MPKI: 215.596
LLC LOAD      ACCESS:    3401273  HIT:    1670839  MISS:    1730434  HIT %:    49.1239  MISS %:    50.8761   MPKI: 69.2174
LLC PREFETCH  ACCESS:    6023964  HIT:    2365433  MISS:    3658531  HIT %:    39.2671  MISS %:    60.7329   MPKI: 146.341
AGUS PREFETCH L1 MISS: 0
LLC WRITEBACK ACCESS:       9594  HIT:       9385  MISS:        209  HIT %:    97.8216  MISS %:    2.17844   MPKI: 0.00836
LLC LOAD TRANSLATION ACCESS:       1001  HIT:        264  MISS:        737  HIT %:    26.3736  MISS %:    73.6264   MPKI: 0.02948
LLC PREFETCH  REQUESTED:          0  ISSUED:          0  USEFUL:     376103  USELESS:    3282248
LLC USEFUL LOAD PREFETCHES:     376103 PREFETCH ISSUED TO LOWER LEVEL:    3658531  ACCURACY: 10.2802
LLC TIMELY PREFETCHES:     376103 LATE PREFETCHES: 0 DROPPED PREFETCHES: 0
LLC PREFETCHES SAME FILL-ORIGIN LEVEL: 0 DIFFERENT FILL-ORIGIN LEVEL: 0
LLC AVERAGE MISS LATENCY: 153.885 cycles
LLC RQ	ACCESS:    3402274	FORWARD:          0	MERGED:          0	TO_CACHE:    3402274
LLC WQ	ACCESS:       9594	FORWARD:          0	MERGED:          0	TO_CACHE:       9594
LLC PQ	ACCESS:    6023964	FORWARD:          0	MERGED:          0	TO_CACHE:    6023964

LLC Dense regions hint to LLC: 0

RAW hits: 0
Loads Generated: 9844579
Loads sent to L1D: 9844578
Stores Generated: 296806
Stores sent to L1D: 296806
Major fault: 0 Minor fault: 10907
Allocated PAGES: 10907
CPU 0 L1D nextline prefetcher final stats
 Action = 30 : 598193
 Action = 23 : 686898
 Action = 16 : 844522
 Action = 11 : 933207
 Action = 10 : 981113
 Action = 22 : 696973
 Action = 5 : 1201852
 Action = 4 : 1250873
 Action = 32 : 572929
 Action = -3 : 1276121
 Action = 12 : 962021
 Action = -6 : 1078017
 Action = 3 : 1258495
 Action = 1 : 1420885
 Action = -1 : 1672174
 Action = 0 : 135079

DRAM Statistics
 CHANNEL 0
 RQ ROW_BUFFER_HIT:    1536156  ROW_BUFFER_MISS:    3853546
 DBUS_CONGESTED:        231
 WQ ROW_BUFFER_HIT:       4412  ROW_BUFFER_MISS:       5737  FULL:          0

 AVG_CONGESTED_CYCLE: 5
 All warmup complete: 2
Channel 0 Bank busy for read cycles: 0
Channel 0 Bank busy for write cycles: 0
Channel 0
Rank 0
0banks busy for read cycles: 173321639
0banks busy for write cycles: 8978
1banks busy for read cycles: 147729389
1banks busy for write cycles: 3596371
2banks busy for read cycles: 110469744
2banks busy for write cycles: 373124
3banks busy for read cycles: 66404882
3banks busy for write cycles: 41800
4banks busy for read cycles: 15804368
4banks busy for write cycles: 11593
5banks busy for read cycles: 3942163
5banks busy for write cycles: 1003
6banks busy for read cycles: 576984
6banks busy for write cycles: 0
7banks busy for read cycles: 71939
7banks busy for write cycles: 0
8banks busy for read cycles: 8400
8banks busy for write cycles: 0

CPU 0 Branch Prediction Accuracy: 96.35% MPKI: 6.96992 Average ROB Occupancy at Mispredict: 131.319
Branch types
NOT_BRANCH: 20225958 80.9038%
BRANCH_DIRECT_JUMP: 0 0%
BRANCH_INDIRECT: 0 0%
BRANCH_CONDITIONAL: 4773853 19.0954%
BRANCH_DIRECT_CALL: 0 0%
BRANCH_INDIRECT_CALL: 0 0%
BRANCH_RETURN: 0 0%
BRANCH_OTHER: 0 0%

DRAM PAGES: 1048576
Allocated PAGES: 10907
