
*** ChampSim Multicore Out-of-Order Simulator ***

Warmup Instructions: 25000000
Simulation Instructions: 25000000
Number of CPUs: 1
LLC sets: 2048
LLC ways: 16
Off-chip DRAM Size: 4096 MB Channels: 1 Width: 64-bit Data Rate: 6400 MT/s
CPU 0 runs ../traces/pr-5.trace.gz
.gz
CPU 0 Bimodal branch predictor
BTB has LRU replacement policy
ITLB has LRU replacement policy
DTLB has LRU replacement policy
STLB has LRU replacement policy
L1I has LRU replacement policy
L1D has LRU replacement policy
L2C has LRU replacement policy
LLC has LRU replacement policy
Heartbeat CPU 0 instructions: 10000001 cycles: 3333432 heartbeat IPC: 2.99991 cumulative IPC: 2.99991 (Simulation time: 0 hr 0 min 6 sec) 
Heartbeat CPU 0 instructions: 20000001 cycles: 9640224 heartbeat IPC: 1.58559 cumulative IPC: 2.07464 (Simulation time: 0 hr 0 min 22 sec) 

Warmup complete CPU 0 instructions: 25000004 cycles: 13041669 (Simulation time: 0 hr 0 min 31 sec) 

Heartbeat CPU 0 instructions: 30000000 cycles: 105439930 heartbeat IPC: 0.104384 cumulative IPC: 0.0541135 (Simulation time: 0 hr 1 min 8 sec) 
Heartbeat CPU 0 instructions: 40000001 cycles: 289437892 heartbeat IPC: 0.0543484 cumulative IPC: 0.0542699 (Simulation time: 0 hr 2 min 19 sec) 
Heartbeat CPU 0 instructions: 50000003 cycles: 472772695 heartbeat IPC: 0.054545 cumulative IPC: 0.0543796 (Simulation time: 0 hr 3 min 29 sec) 
Finished CPU 0 instructions: 25000000 cycles: 459731027 cumulative IPC: 0.0543796 (Simulation time: 0 hr 3 min 29 sec) 

ChampSim completed all CPUs

Region of Interest Statistics

CPU 0 cumulative IPC: 0.0543796 instructions: 25000000 cycles: 459731027
ITLB TOTAL     ACCESS:    7555995  HIT:    7555995  MISS:          0  HIT %:        100  MISS %:          0   MPKI: 0
ITLB LOAD TRANSLATION ACCESS:    7555995  HIT:    7555995  MISS:          0  HIT %:        100  MISS %:          0   MPKI: 0
ITLB PREFETCH  REQUESTED:          0  ISSUED:          0  USEFUL:          0  USELESS:          0
ITLB USEFUL LOAD PREFETCHES:          0 PREFETCH ISSUED TO LOWER LEVEL:          0  ACCURACY: -nan
ITLB TIMELY PREFETCHES:          0 LATE PREFETCHES: 0 DROPPED PREFETCHES: 0
ITLB PREFETCHES SAME FILL-ORIGIN LEVEL: 0 DIFFERENT FILL-ORIGIN LEVEL: 0
ITLB AVERAGE MISS LATENCY: -nan cycles
ITLB RQ	ACCESS:    7688902	FORWARD:          0	MERGED:     132907	TO_CACHE:    7555995

DTLB TOTAL     ACCESS:    8510004  HIT:    5467410  MISS:    3042594  HIT %:    64.2469  MISS %:    35.7531   MPKI: 121.704
DTLB LOAD TRANSLATION ACCESS:    8510004  HIT:    5467410  MISS:    3042594  HIT %:    64.2469  MISS %:    35.7531   MPKI: 121.704
DTLB PREFETCH  REQUESTED:          0  ISSUED:          0  USEFUL:          0  USELESS:          0
DTLB USEFUL LOAD PREFETCHES:          0 PREFETCH ISSUED TO LOWER LEVEL:          0  ACCURACY: -nan
DTLB TIMELY PREFETCHES:          0 LATE PREFETCHES: 0 DROPPED PREFETCHES: 0
DTLB PREFETCHES SAME FILL-ORIGIN LEVEL: 0 DIFFERENT FILL-ORIGIN LEVEL: 0
DTLB AVERAGE MISS LATENCY: 9.21893 cycles
DTLB RQ	ACCESS:    8585840	FORWARD:          0	MERGED:      75009	TO_CACHE:    8510831

STLB TOTAL     ACCESS:    3042593  HIT:    3037786  MISS:       4807  HIT %:     99.842  MISS %:    0.15799   MPKI: 0.19228
STLB LOAD TRANSLATION ACCESS:    3042593  HIT:    3037786  MISS:       4807  HIT %:     99.842  MISS %:    0.15799   MPKI: 0.19228
STLB PREFETCH  REQUESTED:          0  ISSUED:          0  USEFUL:          0  USELESS:          0
STLB USEFUL LOAD PREFETCHES:          0 PREFETCH ISSUED TO LOWER LEVEL:          0  ACCURACY: -nan
STLB TIMELY PREFETCHES:          0 LATE PREFETCHES: 0 DROPPED PREFETCHES: 0
STLB PREFETCHES SAME FILL-ORIGIN LEVEL: 0 DIFFERENT FILL-ORIGIN LEVEL: 0
STLB AVERAGE MISS LATENCY: 132.998 cycles
STLB RQ	ACCESS:    3042593	FORWARD:          0	MERGED:          0	TO_CACHE:    3042593

STLB Hit, L1D data hit: 0
STLB Hit, L2C data hit: 0
STLB Hit, LLC data hit: 0
STLB Hit, LLC data miss: 0
STLB STLB hints to L2: 0
L1D TOTAL     ACCESS:    8024042  HIT:    3478175  MISS:    4545867  HIT %:    43.3469  MISS %:    56.6531   MPKI: 181.835
L1D LOAD      ACCESS:    7727236  HIT:    3181369  MISS:    4545867  HIT %:    41.1709  MISS %:    58.8291   MPKI: 181.835
L1D RFO       ACCESS:     296806  HIT:     296806  MISS:          0  HIT %:        100  MISS %:          0   MPKI: 0
L1D PREFETCH  REQUESTED:          0  ISSUED:          0  USEFUL:          0  USELESS:          0
L1D USEFUL LOAD PREFETCHES:          0 PREFETCH ISSUED TO LOWER LEVEL:          0  ACCURACY: -nan
L1D TIMELY PREFETCHES:          0 LATE PREFETCHES: 0 DROPPED PREFETCHES: 0
L1D PREFETCHES SAME FILL-ORIGIN LEVEL: 0 DIFFERENT FILL-ORIGIN LEVEL: 0
L1D AVERAGE MISS LATENCY: 93.4884 cycles
L1D RQ	ACCESS:    9844578	FORWARD:          0	MERGED:    1555544	TO_CACHE:    8289034
L1D WQ	ACCESS:     296806	FORWARD:          0	MERGED:          0	TO_CACHE:     296806

L1D UNIQUE REGIONS ACCESSED: 0
L1D REGIONS CONFLICTS: 0
L1D Cross Page Prefetch Requests: 0
L1D Same Page Prefetch Requests: 0
L1D ROI Sum of L1D PQ occupancy: 0
L1D PREFETCHES PUSHED FROM L2C: 0
L1I TOTAL     ACCESS:    7688902  HIT:    7688902  MISS:          0  HIT %:        100  MISS %:          0   MPKI: 0
L1I LOAD      ACCESS:    7688902  HIT:    7688902  MISS:          0  HIT %:        100  MISS %:          0   MPKI: 0
L1I PREFETCH  REQUESTED:          0  ISSUED:          0  USEFUL:          0  USELESS:          0
L1I USEFUL LOAD PREFETCHES:          0 PREFETCH ISSUED TO LOWER LEVEL:          0  ACCURACY: -nan
L1I TIMELY PREFETCHES:          0 LATE PREFETCHES: 0 DROPPED PREFETCHES: 0
L1I PREFETCHES SAME FILL-ORIGIN LEVEL: 0 DIFFERENT FILL-ORIGIN LEVEL: 0
L1I AVERAGE MISS LATENCY: -nan cycles
L1I RQ	ACCESS:    9026430	FORWARD:          0	MERGED:    1337528	TO_CACHE:    7688902

BTB TOTAL     ACCESS:    4773850  HIT:    4773847  MISS:          3  HIT %:    99.9999  MISS %: 6.28424e-05   MPKI: 0.00012
BTB BRANCH_DIRECT_JUMP	ACCESS:          0  HIT:          0  MISS:          0
BTB BRANCH_INDIRECT	ACCESS:          0  HIT:          0  MISS:          0
BTB BRANCH_CONDITIONAL	ACCESS:    4773850  HIT:    4773847  MISS:          3
BTB BRANCH_DIRECT_CALL	ACCESS:          0  HIT:          0  MISS:          0
BTB BRANCH_INDIRECT_CALL	ACCESS:          0  HIT:          0  MISS:          0
BTB BRANCH_RETURN	ACCESS:          0  HIT:          0  MISS:          0
BTB BRANCH_OTHER ACCESS:          0  HIT:          0  MISS:          0

L2C TOTAL     ACCESS:    4561846  HIT:    1257914  MISS:    3303932  HIT %:    27.5747  MISS %:    72.4253   MPKI: 132.157
L2C LOAD      ACCESS:    4545867  HIT:    1242809  MISS:    3303058  HIT %:    27.3393  MISS %:    72.6607   MPKI: 132.122
L2C DATA LOAD MPKI: 132.122
L2C INSTRUCTION LOAD MPKI: 0
L2C WRITEBACK ACCESS:      11172  HIT:      11155  MISS:         17  HIT %:    99.8478  MISS %:   0.152166   MPKI: 0.00068
L2C LOAD TRANSLATION ACCESS:       4807  HIT:       3950  MISS:        857  HIT %:    82.1718  MISS %:    17.8282   MPKI: 0.03428
L2C PREFETCH  REQUESTED:          0  ISSUED:          0  USEFUL:          0  USELESS:          0
L2C USEFUL LOAD PREFETCHES:          0 PREFETCH ISSUED TO LOWER LEVEL:          0  ACCURACY: -nan
L2C TIMELY PREFETCHES:          0 LATE PREFETCHES: 0 DROPPED PREFETCHES: 0
L2C PREFETCHES SAME FILL-ORIGIN LEVEL: 0 DIFFERENT FILL-ORIGIN LEVEL: 0
L2C AVERAGE MISS LATENCY: 108.006 cycles
L2C RQ	ACCESS:    4550674	FORWARD:          0	MERGED:          0	TO_CACHE:    4550674
L2C WQ	ACCESS:      11172	FORWARD:          0	MERGED:          0	TO_CACHE:      11172

L2C Instructions Evicting Data 0
L2C Translations Evicting Data 857
L2C Data Evicting Data 3302201
L2C Instructions Evicting Instructions 0
L2C Translations Evicting Instructions 0
L2C Data Evicting Instructions 0
L2C Instructions Evicting Translations 0
L2C Translations Evicting Translations 0
L2C Data Evicting Translations 857
L2C Dense regions hint from L2: 0
PSCL5 TOTAL     ACCESS:       4807  HIT:       4807  MISS:          0  HIT %:        100  MISS %:          0   MPKI: 0
PSCL5 LOAD TRANSLATION ACCESS:       4807  HIT:       4807  MISS:          0  HIT %:        100  MISS %:          0   MPKI: 0
PSCL5 PREFETCH  REQUESTED:          0  ISSUED:          0  USEFUL:          0  USELESS:          0
PSCL5 USEFUL LOAD PREFETCHES:          0 PREFETCH ISSUED TO LOWER LEVEL:          0  ACCURACY: -nan
PSCL5 TIMELY PREFETCHES:          0 LATE PREFETCHES: 0 DROPPED PREFETCHES: 0
PSCL5 PREFETCHES SAME FILL-ORIGIN LEVEL: 0 DIFFERENT FILL-ORIGIN LEVEL: 0

PSCL4 TOTAL     ACCESS:       4807  HIT:       4807  MISS:          0  HIT %:        100  MISS %:          0   MPKI: 0
PSCL4 LOAD TRANSLATION ACCESS:       4807  HIT:       4807  MISS:          0  HIT %:        100  MISS %:          0   MPKI: 0
PSCL4 PREFETCH  REQUESTED:          0  ISSUED:          0  USEFUL:          0  USELESS:          0
PSCL4 USEFUL LOAD PREFETCHES:          0 PREFETCH ISSUED TO LOWER LEVEL:          0  ACCURACY: -nan
PSCL4 TIMELY PREFETCHES:          0 LATE PREFETCHES: 0 DROPPED PREFETCHES: 0
PSCL4 PREFETCHES SAME FILL-ORIGIN LEVEL: 0 DIFFERENT FILL-ORIGIN LEVEL: 0

PSCL3 TOTAL     ACCESS:       4807  HIT:       4807  MISS:          0  HIT %:        100  MISS %:          0   MPKI: 0
PSCL3 LOAD TRANSLATION ACCESS:       4807  HIT:       4807  MISS:          0  HIT %:        100  MISS %:          0   MPKI: 0
PSCL3 PREFETCH  REQUESTED:          0  ISSUED:          0  USEFUL:          0  USELESS:          0
PSCL3 USEFUL LOAD PREFETCHES:          0 PREFETCH ISSUED TO LOWER LEVEL:          0  ACCURACY: -nan
PSCL3 TIMELY PREFETCHES:          0 LATE PREFETCHES: 0 DROPPED PREFETCHES: 0
PSCL3 PREFETCHES SAME FILL-ORIGIN LEVEL: 0 DIFFERENT FILL-ORIGIN LEVEL: 0

PSCL2 TOTAL     ACCESS:       4807  HIT:       4799  MISS:          8  HIT %:    99.8336  MISS %:   0.166424   MPKI: 0.00032
PSCL2 LOAD TRANSLATION ACCESS:       4807  HIT:       4799  MISS:          8  HIT %:    99.8336  MISS %:   0.166424   MPKI: 0.00032
PSCL2 PREFETCH  REQUESTED:          0  ISSUED:          0  USEFUL:          0  USELESS:          0
PSCL2 USEFUL LOAD PREFETCHES:          0 PREFETCH ISSUED TO LOWER LEVEL:          0  ACCURACY: -nan
PSCL2 TIMELY PREFETCHES:          0 LATE PREFETCHES: 0 DROPPED PREFETCHES: 0
PSCL2 PREFETCHES SAME FILL-ORIGIN LEVEL: 0 DIFFERENT FILL-ORIGIN LEVEL: 0

LLC TOTAL     ACCESS:    3313260  HIT:    1706366  MISS:    1606894  HIT %:    51.5011  MISS %:    48.4989   MPKI: 64.2758
LLC LOAD      ACCESS:    3303058  HIT:    1696859  MISS:    1606199  HIT %:    51.3724  MISS %:    48.6276   MPKI: 64.248
LLC WRITEBACK ACCESS:       9345  HIT:       9331  MISS:         14  HIT %:    99.8502  MISS %:   0.149813   MPKI: 0.00056
LLC LOAD TRANSLATION ACCESS:        857  HIT:        176  MISS:        681  HIT %:    20.5368  MISS %:    79.4632   MPKI: 0.02724
LLC PREFETCH  REQUESTED:          0  ISSUED:          0  USEFUL:          0  USELESS:          0
LLC USEFUL LOAD PREFETCHES:          0 PREFETCH ISSUED TO LOWER LEVEL:          0  ACCURACY: -nan
LLC TIMELY PREFETCHES:          0 LATE PREFETCHES: 0 DROPPED PREFETCHES: 0
LLC PREFETCHES SAME FILL-ORIGIN LEVEL: 0 DIFFERENT FILL-ORIGIN LEVEL: 0
LLC AVERAGE MISS LATENCY: 160.323 cycles
LLC RQ	ACCESS:    3303915	FORWARD:          0	MERGED:          0	TO_CACHE:    3303915
LLC WQ	ACCESS:       9345	FORWARD:          0	MERGED:          0	TO_CACHE:       9345

LLC Dense regions hint to LLC: 0

RAW hits: 0
Loads Generated: 9844579
Loads sent to L1D: 9844578
Stores Generated: 296806
Stores sent to L1D: 296806
Major fault: 0 Minor fault: 10907
Allocated PAGES: 10907

DRAM Statistics
 CHANNEL 0
 RQ ROW_BUFFER_HIT:     181119  ROW_BUFFER_MISS:    1425761
 DBUS_CONGESTED:          1
 WQ ROW_BUFFER_HIT:       1976  ROW_BUFFER_MISS:       7386  FULL:          0

 AVG_CONGESTED_CYCLE: 3
 All warmup complete: 2
Channel 0 Bank busy for read cycles: 0
Channel 0 Bank busy for write cycles: 0
Channel 0
Rank 0
0banks busy for read cycles: 254762386
0banks busy for write cycles: 9078
1banks busy for read cycles: 185159211
1banks busy for write cycles: 1750445
2banks busy for read cycles: 16272174
2banks busy for write cycles: 48265
3banks busy for read cycles: 1699989
3banks busy for write cycles: 585
4banks busy for read cycles: 27879
4banks busy for write cycles: 0
5banks busy for read cycles: 1016
5banks busy for write cycles: 0
6banks busy for read cycles: 0
6banks busy for write cycles: 0
7banks busy for read cycles: 0
7banks busy for write cycles: 0
8banks busy for read cycles: 0
8banks busy for write cycles: 0

CPU 0 Branch Prediction Accuracy: 96.35% MPKI: 6.96992 Average ROB Occupancy at Mispredict: 128.3
Branch types
NOT_BRANCH: 20225958 80.9038%
BRANCH_DIRECT_JUMP: 0 0%
BRANCH_INDIRECT: 0 0%
BRANCH_CONDITIONAL: 4773853 19.0954%
BRANCH_DIRECT_CALL: 0 0%
BRANCH_INDIRECT_CALL: 0 0%
BRANCH_RETURN: 0 0%
BRANCH_OTHER: 0 0%

DRAM PAGES: 1048576
Allocated PAGES: 10907
