
*** ChampSim Multicore Out-of-Order Simulator ***

Warmup Instructions: 25000000
Simulation Instructions: 25000000
Number of CPUs: 1
LLC sets: 2048
LLC ways: 16
Off-chip DRAM Size: 4096 MB Channels: 1 Width: 64-bit Data Rate: 6400 MT/s
CPU 0 runs ../traces/sssp-3.trace.gz
.gz
CPU 0 Bimodal branch predictor
BTB has LRU replacement policy
ITLB has LRU replacement policy
DTLB has LRU replacement policy
STLB has LRU replacement policy
L1I has LRU replacement policy
CPU 0 L1D - Pythia Preftecher 
L1D has LRU replacement policy
L2C has LRU replacement policy
LLC has LRU replacement policy
Heartbeat CPU 0 instructions: 10000002 cycles: 3089984 heartbeat IPC: 3.23626 cumulative IPC: 3.23626 (Simulation time: 0 hr 1 min 0 sec) 
Heartbeat CPU 0 instructions: 20000001 cycles: 6152555 heartbeat IPC: 3.26523 cumulative IPC: 3.25068 (Simulation time: 0 hr 2 min 12 sec) 

Warmup complete CPU 0 instructions: 25000001 cycles: 7695891 (Simulation time: 0 hr 2 min 48 sec) 

Heartbeat CPU 0 instructions: 30000002 cycles: 25800702 heartbeat IPC: 0.508954 cumulative IPC: 0.27617 (Simulation time: 0 hr 3 min 30 sec) 
Heartbeat CPU 0 instructions: 40000001 cycles: 60444506 heartbeat IPC: 0.288652 cumulative IPC: 0.284368 (Simulation time: 0 hr 4 min 55 sec) 
Heartbeat CPU 0 instructions: 50000002 cycles: 93159195 heartbeat IPC: 0.305673 cumulative IPC: 0.292523 (Simulation time: 0 hr 6 min 19 sec) 
Finished CPU 0 instructions: 25000001 cycles: 85463304 cumulative IPC: 0.292523 (Simulation time: 0 hr 6 min 19 sec) 

ChampSim completed all CPUs

Region of Interest Statistics

CPU 0 cumulative IPC: 0.292523 instructions: 25000001 cycles: 85463304
ITLB TOTAL     ACCESS:    3124437  HIT:    3124437  MISS:          0  HIT %:        100  MISS %:          0   MPKI: 0
ITLB LOAD TRANSLATION ACCESS:    3124437  HIT:    3124437  MISS:          0  HIT %:        100  MISS %:          0   MPKI: 0
ITLB PREFETCH  REQUESTED:          0  ISSUED:          0  USEFUL:          0  USELESS:          0
ITLB USEFUL LOAD PREFETCHES:          0 PREFETCH ISSUED TO LOWER LEVEL:          0  ACCURACY: -nan
ITLB TIMELY PREFETCHES:          0 LATE PREFETCHES: 0 DROPPED PREFETCHES: 0
ITLB PREFETCHES SAME FILL-ORIGIN LEVEL: 0 DIFFERENT FILL-ORIGIN LEVEL: 0
ITLB AVERAGE MISS LATENCY: -nan cycles
ITLB RQ	ACCESS:    3319348	FORWARD:          0	MERGED:     194912	TO_CACHE:    3124436

DTLB TOTAL     ACCESS:    6399640  HIT:    5962042  MISS:     437598  HIT %:    93.1621  MISS %:    6.83785   MPKI: 17.5039
DTLB LOAD TRANSLATION ACCESS:    6399640  HIT:    5962042  MISS:     437598  HIT %:    93.1621  MISS %:    6.83785   MPKI: 17.5039
DTLB PREFETCH  REQUESTED:          0  ISSUED:          0  USEFUL:          0  USELESS:          0
DTLB USEFUL LOAD PREFETCHES:          0 PREFETCH ISSUED TO LOWER LEVEL:          0  ACCURACY: -nan
DTLB TIMELY PREFETCHES:          0 LATE PREFETCHES: 0 DROPPED PREFETCHES: 0
DTLB PREFETCHES SAME FILL-ORIGIN LEVEL: 0 DIFFERENT FILL-ORIGIN LEVEL: 0
DTLB AVERAGE MISS LATENCY: 11.6658 cycles
DTLB RQ	ACCESS:    7284120	FORWARD:          0	MERGED:     871710	TO_CACHE:    6412410

STLB TOTAL     ACCESS:    5194424  HIT:    5188961  MISS:       5463  HIT %:    99.8948  MISS %:    0.10517   MPKI: 0.21852
STLB LOAD TRANSLATION ACCESS:     437598  HIT:     432135  MISS:       5463  HIT %:    98.7516  MISS %:    1.24841   MPKI: 0.21852
STLB TRANSLATION FROM L1D PREFETCHER ACCESS:    4756826  HIT:    4756826  MISS:          0  HIT %:        100  MISS %:          0   MPKI: 0
STLB PREFETCH  REQUESTED:          0  ISSUED:          0  USEFUL:          0  USELESS:          0
STLB USEFUL LOAD PREFETCHES:          0 PREFETCH ISSUED TO LOWER LEVEL:          0  ACCURACY: -nan
STLB TIMELY PREFETCHES:          0 LATE PREFETCHES: 0 DROPPED PREFETCHES: 0
STLB PREFETCHES SAME FILL-ORIGIN LEVEL: 0 DIFFERENT FILL-ORIGIN LEVEL: 0
STLB AVERAGE MISS LATENCY: 202.433 cycles
STLB RQ	ACCESS:   16003431	FORWARD:          0	MERGED:   10809008	TO_CACHE:    5194423

STLB Hit, L1D data hit: 0
STLB Hit, L2C data hit: 0
STLB Hit, LLC data hit: 0
STLB Hit, LLC data miss: 0
STLB STLB hints to L2: 0
L1D TOTAL     ACCESS:   21760138  HIT:   19287527  MISS:    2472611  HIT %:     88.637  MISS %:     11.363   MPKI: 98.9044
L1D LOAD      ACCESS:    6561227  HIT:    5660194  MISS:     901033  HIT %:    86.2673  MISS %:    13.7327   MPKI: 36.0413
L1D RFO       ACCESS:     633202  HIT:     482895  MISS:     150307  HIT %:    76.2624  MISS %:    23.7376   MPKI: 6.01228
L1D PREFETCH  ACCESS:   14565709  HIT:   13144438  MISS:    1421271  HIT %:    90.2423  MISS %:    9.75765   MPKI: 56.8508
AGUS PREFETCH L1 MISS: 0
L1D PREFETCH  REQUESTED:   33150379  ISSUED:   32919696  USEFUL:     234882  USELESS:    1186217
L1D USEFUL LOAD PREFETCHES:     234882 PREFETCH ISSUED TO LOWER LEVEL:    1445970  ACCURACY: 16.2439
L1D TIMELY PREFETCHES:     234882 LATE PREFETCHES: 24697 DROPPED PREFETCHES: 0
L1D PREFETCHES SAME FILL-ORIGIN LEVEL: 1445970 DIFFERENT FILL-ORIGIN LEVEL: 0
L1D AVERAGE MISS LATENCY: 121.648 cycles
L1D RQ	ACCESS:    9000990	FORWARD:          0	MERGED:    2401253	TO_CACHE:    6599639
L1D WQ	ACCESS:     684884	FORWARD:        171	MERGED:        403	TO_CACHE:     684481
L1D PQ	ACCESS:   17353863	FORWARD:          0	MERGED:    1787957	TO_CACHE:   15565833

L1D UNIQUE REGIONS ACCESSED: 0
L1D REGIONS CONFLICTS: 0
L1D Cross Page Prefetch Requests: 0
L1D Same Page Prefetch Requests: 27584767
L1D ROI Sum of L1D PQ occupancy: 205285445
L1D PREFETCHES PUSHED FROM L2C: 0
L1I TOTAL     ACCESS:    3319347  HIT:    3319347  MISS:          0  HIT %:        100  MISS %:          0   MPKI: 0
L1I LOAD      ACCESS:    3319347  HIT:    3319347  MISS:          0  HIT %:        100  MISS %:          0   MPKI: 0
L1I PREFETCH  REQUESTED:          0  ISSUED:          0  USEFUL:          0  USELESS:          0
L1I USEFUL LOAD PREFETCHES:          0 PREFETCH ISSUED TO LOWER LEVEL:          0  ACCURACY: -nan
L1I TIMELY PREFETCHES:          0 LATE PREFETCHES: 0 DROPPED PREFETCHES: 0
L1I PREFETCHES SAME FILL-ORIGIN LEVEL: 0 DIFFERENT FILL-ORIGIN LEVEL: 0
L1I AVERAGE MISS LATENCY: -nan cycles
L1I RQ	ACCESS:    4655735	FORWARD:          0	MERGED:    1336387	TO_CACHE:    3319348

BTB TOTAL     ACCESS:    3469184  HIT:    3469066  MISS:        118  HIT %:    99.9966  MISS %: 0.00340138   MPKI: 0.00472
BTB BRANCH_DIRECT_JUMP	ACCESS:    1016016  HIT:    1015983  MISS:         33
BTB BRANCH_INDIRECT	ACCESS:          0  HIT:          0  MISS:          0
BTB BRANCH_CONDITIONAL	ACCESS:    2451436  HIT:    2451365  MISS:         71
BTB BRANCH_DIRECT_CALL	ACCESS:        866  HIT:        861  MISS:          5
BTB BRANCH_INDIRECT_CALL	ACCESS:          0  HIT:          0  MISS:          0
BTB BRANCH_RETURN	ACCESS:        866  HIT:        857  MISS:          9
BTB BRANCH_OTHER ACCESS:          0  HIT:          0  MISS:          0

L2C TOTAL     ACCESS:    2869738  HIT:     747611  MISS:    2122127  HIT %:    26.0515  MISS %:    73.9485   MPKI: 84.8851
L2C LOAD      ACCESS:     876333  HIT:     103321  MISS:     773012  HIT %:    11.7902  MISS %:    88.2098   MPKI: 30.9205
L2C DATA LOAD MPKI: 30.9205
L2C INSTRUCTION LOAD MPKI: 0
L2C RFO       ACCESS:     150293  HIT:     105209  MISS:      45084  HIT %:    70.0026  MISS %:    29.9974   MPKI: 1.80336
L2C PREFETCH  ACCESS:    1445964  HIT:     149027  MISS:    1296937  HIT %:    10.3064  MISS %:    89.6936   MPKI: 51.8775
AGUS PREFETCH L1 MISS: 0
L2C DATA PREFETCH MPKI: 51.8775
L2C INSTRUCTION PREFETCH MPKI: 0
L2C WRITEBACK ACCESS:     391025  HIT:     387664  MISS:       3361  HIT %:    99.1405  MISS %:   0.859536   MPKI: 0.13444
L2C LOAD TRANSLATION ACCESS:       6123  HIT:       2390  MISS:       3733  HIT %:    39.0332  MISS %:    60.9668   MPKI: 0.14932
L2C PREFETCH  REQUESTED:          0  ISSUED:          0  USEFUL:      18790  USELESS:    1276048
L2C USEFUL LOAD PREFETCHES:      18790 PREFETCH ISSUED TO LOWER LEVEL:    1296937  ACCURACY: 1.4488
L2C TIMELY PREFETCHES:      18790 LATE PREFETCHES: 0 DROPPED PREFETCHES: 0
L2C PREFETCHES SAME FILL-ORIGIN LEVEL: 0 DIFFERENT FILL-ORIGIN LEVEL: 0
L2C AVERAGE MISS LATENCY: 124.402 cycles
L2C RQ	ACCESS:    1032763	FORWARD:          0	MERGED:          0	TO_CACHE:    1032748
L2C WQ	ACCESS:     391025	FORWARD:         21	MERGED:          0	TO_CACHE:     391025
L2C PQ	ACCESS:    1445970	FORWARD:          0	MERGED:          0	TO_CACHE:    1445964

L2C Instructions Evicting Data 0
L2C Translations Evicting Data 3725
L2C Data Evicting Data 2111295
L2C Instructions Evicting Instructions 0
L2C Translations Evicting Instructions 0
L2C Data Evicting Instructions 0
L2C Instructions Evicting Translations 0
L2C Translations Evicting Translations 8
L2C Data Evicting Translations 3738
L2C Dense regions hint from L2: 0
PSCL5 TOTAL     ACCESS:       5463  HIT:       5463  MISS:          0  HIT %:        100  MISS %:          0   MPKI: 0
PSCL5 LOAD TRANSLATION ACCESS:       5463  HIT:       5463  MISS:          0  HIT %:        100  MISS %:          0   MPKI: 0
PSCL5 PREFETCH  REQUESTED:          0  ISSUED:          0  USEFUL:          0  USELESS:          0
PSCL5 USEFUL LOAD PREFETCHES:          0 PREFETCH ISSUED TO LOWER LEVEL:          0  ACCURACY: -nan
PSCL5 TIMELY PREFETCHES:          0 LATE PREFETCHES: 0 DROPPED PREFETCHES: 0
PSCL5 PREFETCHES SAME FILL-ORIGIN LEVEL: 0 DIFFERENT FILL-ORIGIN LEVEL: 0

PSCL4 TOTAL     ACCESS:       5463  HIT:       5463  MISS:          0  HIT %:        100  MISS %:          0   MPKI: 0
PSCL4 LOAD TRANSLATION ACCESS:       5463  HIT:       5463  MISS:          0  HIT %:        100  MISS %:          0   MPKI: 0
PSCL4 PREFETCH  REQUESTED:          0  ISSUED:          0  USEFUL:          0  USELESS:          0
PSCL4 USEFUL LOAD PREFETCHES:          0 PREFETCH ISSUED TO LOWER LEVEL:          0  ACCURACY: -nan
PSCL4 TIMELY PREFETCHES:          0 LATE PREFETCHES: 0 DROPPED PREFETCHES: 0
PSCL4 PREFETCHES SAME FILL-ORIGIN LEVEL: 0 DIFFERENT FILL-ORIGIN LEVEL: 0

PSCL3 TOTAL     ACCESS:       5463  HIT:       5463  MISS:          0  HIT %:        100  MISS %:          0   MPKI: 0
PSCL3 LOAD TRANSLATION ACCESS:       5463  HIT:       5463  MISS:          0  HIT %:        100  MISS %:          0   MPKI: 0
PSCL3 PREFETCH  REQUESTED:          0  ISSUED:          0  USEFUL:          0  USELESS:          0
PSCL3 USEFUL LOAD PREFETCHES:          0 PREFETCH ISSUED TO LOWER LEVEL:          0  ACCURACY: -nan
PSCL3 TIMELY PREFETCHES:          0 LATE PREFETCHES: 0 DROPPED PREFETCHES: 0
PSCL3 PREFETCHES SAME FILL-ORIGIN LEVEL: 0 DIFFERENT FILL-ORIGIN LEVEL: 0

PSCL2 TOTAL     ACCESS:       5463  HIT:       4803  MISS:        660  HIT %:    87.9187  MISS %:    12.0813   MPKI: 0.0264
PSCL2 LOAD TRANSLATION ACCESS:       5463  HIT:       4803  MISS:        660  HIT %:    87.9187  MISS %:    12.0813   MPKI: 0.0264
PSCL2 PREFETCH  REQUESTED:          0  ISSUED:          0  USEFUL:          0  USELESS:          0
PSCL2 USEFUL LOAD PREFETCHES:          0 PREFETCH ISSUED TO LOWER LEVEL:          0  ACCURACY: -nan
PSCL2 TIMELY PREFETCHES:          0 LATE PREFETCHES: 0 DROPPED PREFETCHES: 0
PSCL2 PREFETCHES SAME FILL-ORIGIN LEVEL: 0 DIFFERENT FILL-ORIGIN LEVEL: 0

LLC TOTAL     ACCESS:    2365736  HIT:     987209  MISS:    1378527  HIT %:    41.7295  MISS %:    58.2705   MPKI: 55.1411
LLC LOAD      ACCESS:     773012  HIT:     344781  MISS:     428231  HIT %:    44.6023  MISS %:    55.3977   MPKI: 17.1292
LLC RFO       ACCESS:      45084  HIT:      17135  MISS:      27949  HIT %:    38.0068  MISS %:    61.9932   MPKI: 1.11796
LLC PREFETCH  ACCESS:    1296937  HIT:     380848  MISS:     916089  HIT %:    29.3652  MISS %:    70.6348   MPKI: 36.6436
AGUS PREFETCH L1 MISS: 0
LLC WRITEBACK ACCESS:     246970  HIT:     243824  MISS:       3146  HIT %:    98.7262  MISS %:    1.27384   MPKI: 0.12584
LLC LOAD TRANSLATION ACCESS:       3733  HIT:        621  MISS:       3112  HIT %:    16.6354  MISS %:    83.3646   MPKI: 0.12448
LLC PREFETCH  REQUESTED:          0  ISSUED:          0  USEFUL:      87432  USELESS:     822166
LLC USEFUL LOAD PREFETCHES:      87432 PREFETCH ISSUED TO LOWER LEVEL:     916089  ACCURACY: 9.54405
LLC TIMELY PREFETCHES:      87432 LATE PREFETCHES: 0 DROPPED PREFETCHES: 0
LLC PREFETCHES SAME FILL-ORIGIN LEVEL: 0 DIFFERENT FILL-ORIGIN LEVEL: 0
LLC AVERAGE MISS LATENCY: 145.243 cycles
LLC RQ	ACCESS:     821828	FORWARD:          0	MERGED:          0	TO_CACHE:     821828
LLC WQ	ACCESS:     246970	FORWARD:          0	MERGED:          0	TO_CACHE:     246970
LLC PQ	ACCESS:    1296937	FORWARD:          0	MERGED:          0	TO_CACHE:    1296937

LLC Dense regions hint to LLC: 0

RAW hits: 3754
Loads Generated: 9004749
Loads sent to L1D: 9000990
Stores Generated: 684884
Stores sent to L1D: 684884
Major fault: 0 Minor fault: 7785
Allocated PAGES: 7785
CPU 0 L1D nextline prefetcher final stats
 Action = 23 : 693417
 Action = 30 : 547739
 Action = 16 : 748316
 Action = 11 : 805230
 Action = 10 : 807587
 Action = 22 : 679674
 Action = 5 : 903136
 Action = 4 : 888347
 Action = 32 : 557301
 Action = -3 : 920156
 Action = 12 : 792528
 Action = -6 : 858250
 Action = 3 : 918161
 Action = 1 : 994567
 Action = -1 : 988051
 Action = 0 : 12841

DRAM Statistics
 CHANNEL 0
 RQ ROW_BUFFER_HIT:     741801  ROW_BUFFER_MISS:     633555
 DBUS_CONGESTED:       2287
 WQ ROW_BUFFER_HIT:      55731  ROW_BUFFER_MISS:     168842  FULL:          0

 AVG_CONGESTED_CYCLE: 4
 All warmup complete: 2
Channel 0 Bank busy for read cycles: 0
Channel 0 Bank busy for write cycles: 0
Channel 0
Rank 0
0banks busy for read cycles: 10880331
0banks busy for write cycles: 54227
1banks busy for read cycles: 19348906
1banks busy for write cycles: 7756264
2banks busy for read cycles: 12855285
2banks busy for write cycles: 5180552
3banks busy for read cycles: 8724480
3banks busy for write cycles: 3348977
4banks busy for read cycles: 5657132
4banks busy for write cycles: 2103162
5banks busy for read cycles: 3581129
5banks busy for write cycles: 1296401
6banks busy for read cycles: 1956955
6banks busy for write cycles: 777310
7banks busy for read cycles: 851573
7banks busy for write cycles: 450825
8banks busy for read cycles: 341140
8banks busy for write cycles: 298656

CPU 0 Branch Prediction Accuracy: 93.5859% MPKI: 9.44236 Average ROB Occupancy at Mispredict: 66.818
Branch types
NOT_BRANCH: 21319376 85.2775%
BRANCH_DIRECT_JUMP: 1016016 4.06406%
BRANCH_INDIRECT: 0 0%
BRANCH_CONDITIONAL: 2662546 10.6502%
BRANCH_DIRECT_CALL: 866 0.003464%
BRANCH_INDIRECT_CALL: 0 0%
BRANCH_RETURN: 866 0.003464%
BRANCH_OTHER: 0 0%

DRAM PAGES: 1048576
Allocated PAGES: 7785
