
*** ChampSim Multicore Out-of-Order Simulator ***

Warmup Instructions: 25000000
Simulation Instructions: 25000000
Number of CPUs: 1
LLC sets: 2048
LLC ways: 16
Off-chip DRAM Size: 4096 MB Channels: 1 Width: 64-bit Data Rate: 6400 MT/s
CPU 0 runs ../traces/sssp-10.trace.gz
.gz
CPU 0 Bimodal branch predictor
BTB has LRU replacement policy
ITLB has LRU replacement policy
DTLB has LRU replacement policy
STLB has LRU replacement policy
L1I has LRU replacement policy
CPU 0 L1D - Pythia Preftecher 
L1D has LRU replacement policy
L2C has LRU replacement policy
LLC has LRU replacement policy
Heartbeat CPU 0 instructions: 10000000 cycles: 3079537 heartbeat IPC: 3.24724 cumulative IPC: 3.24724 (Simulation time: 0 hr 0 min 58 sec) 
Heartbeat CPU 0 instructions: 20000003 cycles: 6132175 heartbeat IPC: 3.27586 cumulative IPC: 3.26149 (Simulation time: 0 hr 2 min 5 sec) 

Warmup complete CPU 0 instructions: 25000002 cycles: 7669592 (Simulation time: 0 hr 2 min 40 sec) 

Heartbeat CPU 0 instructions: 30000003 cycles: 26467491 heartbeat IPC: 0.491755 cumulative IPC: 0.265987 (Simulation time: 0 hr 3 min 20 sec) 
Heartbeat CPU 0 instructions: 40000000 cycles: 60866740 heartbeat IPC: 0.290704 cumulative IPC: 0.28197 (Simulation time: 0 hr 4 min 38 sec) 
Heartbeat CPU 0 instructions: 50000001 cycles: 93471759 heartbeat IPC: 0.306701 cumulative IPC: 0.291368 (Simulation time: 0 hr 5 min 55 sec) 
Finished CPU 0 instructions: 25000003 cycles: 85802168 cumulative IPC: 0.291368 (Simulation time: 0 hr 5 min 55 sec) 

ChampSim completed all CPUs

Region of Interest Statistics

CPU 0 cumulative IPC: 0.291368 instructions: 25000003 cycles: 85802168
ITLB TOTAL     ACCESS:    3112693  HIT:    3112693  MISS:          0  HIT %:        100  MISS %:          0   MPKI: 0
ITLB LOAD TRANSLATION ACCESS:    3112693  HIT:    3112693  MISS:          0  HIT %:        100  MISS %:          0   MPKI: 0
ITLB PREFETCH  REQUESTED:          0  ISSUED:          0  USEFUL:          0  USELESS:          0
ITLB USEFUL LOAD PREFETCHES:          0 PREFETCH ISSUED TO LOWER LEVEL:          0  ACCURACY: -nan
ITLB TIMELY PREFETCHES:          0 LATE PREFETCHES: 0 DROPPED PREFETCHES: 0
ITLB PREFETCHES SAME FILL-ORIGIN LEVEL: 0 DIFFERENT FILL-ORIGIN LEVEL: 0
ITLB AVERAGE MISS LATENCY: -nan cycles
ITLB RQ	ACCESS:    3300805	FORWARD:          0	MERGED:     188112	TO_CACHE:    3112693

DTLB TOTAL     ACCESS:    6353216  HIT:    5908326  MISS:     444890  HIT %:    92.9974  MISS %:     7.0026   MPKI: 17.7956
DTLB LOAD TRANSLATION ACCESS:    6353216  HIT:    5908326  MISS:     444890  HIT %:    92.9974  MISS %:     7.0026   MPKI: 17.7956
DTLB PREFETCH  REQUESTED:          0  ISSUED:          0  USEFUL:          0  USELESS:          0
DTLB USEFUL LOAD PREFETCHES:          0 PREFETCH ISSUED TO LOWER LEVEL:          0  ACCURACY: -nan
DTLB TIMELY PREFETCHES:          0 LATE PREFETCHES: 0 DROPPED PREFETCHES: 0
DTLB PREFETCHES SAME FILL-ORIGIN LEVEL: 0 DIFFERENT FILL-ORIGIN LEVEL: 0
DTLB AVERAGE MISS LATENCY: 11.7565 cycles
DTLB RQ	ACCESS:    6593149	FORWARD:          0	MERGED:     228541	TO_CACHE:    6364608

STLB TOTAL     ACCESS:    5180460  HIT:    5174963  MISS:       5497  HIT %:    99.8939  MISS %:    0.10611   MPKI: 0.21988
STLB LOAD TRANSLATION ACCESS:     444890  HIT:     439393  MISS:       5497  HIT %:    98.7644  MISS %:    1.23559   MPKI: 0.21988
STLB TRANSLATION FROM L1D PREFETCHER ACCESS:    4735570  HIT:    4735570  MISS:          0  HIT %:        100  MISS %:          0   MPKI: 0
STLB PREFETCH  REQUESTED:          0  ISSUED:          0  USEFUL:          0  USELESS:          0
STLB USEFUL LOAD PREFETCHES:          0 PREFETCH ISSUED TO LOWER LEVEL:          0  ACCURACY: -nan
STLB TIMELY PREFETCHES:          0 LATE PREFETCHES: 0 DROPPED PREFETCHES: 0
STLB PREFETCHES SAME FILL-ORIGIN LEVEL: 0 DIFFERENT FILL-ORIGIN LEVEL: 0
STLB AVERAGE MISS LATENCY: 212.538 cycles
STLB RQ	ACCESS:   14309737	FORWARD:          0	MERGED:    9129278	TO_CACHE:    5180459

STLB Hit, L1D data hit: 0
STLB Hit, L2C data hit: 0
STLB Hit, LLC data hit: 0
STLB Hit, LLC data miss: 0
STLB STLB hints to L2: 0
L1D TOTAL     ACCESS:   19337526  HIT:   16762573  MISS:    2574953  HIT %:    86.6842  MISS %:    13.3158   MPKI: 102.998
L1D LOAD      ACCESS:    5894741  HIT:    4956523  MISS:     938218  HIT %:    84.0838  MISS %:    15.9162   MPKI: 37.5287
L1D RFO       ACCESS:     608266  HIT:     460203  MISS:     148063  HIT %:    75.6582  MISS %:    24.3418   MPKI: 5.92252
L1D PREFETCH  ACCESS:   12834519  HIT:   11345847  MISS:    1488672  HIT %:     88.401  MISS %:     11.599   MPKI: 59.5469
AGUS PREFETCH L1 MISS: 0
L1D PREFETCH  REQUESTED:   29099943  ISSUED:   29024353  USEFUL:     222560  USELESS:    1265960
L1D USEFUL LOAD PREFETCHES:     222560 PREFETCH ISSUED TO LOWER LEVEL:    1514082  ACCURACY: 14.6993
L1D TIMELY PREFETCHES:     222560 LATE PREFETCHES: 25407 DROPPED PREFETCHES: 0
L1D PREFETCHES SAME FILL-ORIGIN LEVEL: 1514082 DIFFERENT FILL-ORIGIN LEVEL: 0
L1D AVERAGE MISS LATENCY: 122.065 cycles
L1D RQ	ACCESS:    9038897	FORWARD:          0	MERGED:    3102881	TO_CACHE:    5935867
L1D WQ	ACCESS:     657644	FORWARD:        158	MERGED:        362	TO_CACHE:     657282
L1D PQ	ACCESS:   15159506	FORWARD:          0	MERGED:    1294650	TO_CACHE:   13864847

L1D UNIQUE REGIONS ACCESSED: 0
L1D REGIONS CONFLICTS: 0
L1D Cross Page Prefetch Requests: 0
L1D Same Page Prefetch Requests: 25398260
L1D ROI Sum of L1D PQ occupancy: 186727769
L1D PREFETCHES PUSHED FROM L2C: 0
L1I TOTAL     ACCESS:    3300805  HIT:    3300805  MISS:          0  HIT %:        100  MISS %:          0   MPKI: 0
L1I LOAD      ACCESS:    3300805  HIT:    3300805  MISS:          0  HIT %:        100  MISS %:          0   MPKI: 0
L1I PREFETCH  REQUESTED:          0  ISSUED:          0  USEFUL:          0  USELESS:          0
L1I USEFUL LOAD PREFETCHES:          0 PREFETCH ISSUED TO LOWER LEVEL:          0  ACCURACY: -nan
L1I TIMELY PREFETCHES:          0 LATE PREFETCHES: 0 DROPPED PREFETCHES: 0
L1I PREFETCHES SAME FILL-ORIGIN LEVEL: 0 DIFFERENT FILL-ORIGIN LEVEL: 0
L1I AVERAGE MISS LATENCY: -nan cycles
L1I RQ	ACCESS:    4664730	FORWARD:          0	MERGED:    1363925	TO_CACHE:    3300805

BTB TOTAL     ACCESS:    3463545  HIT:    3463389  MISS:        156  HIT %:    99.9955  MISS %: 0.00450406   MPKI: 0.00624
BTB BRANCH_DIRECT_JUMP	ACCESS:    1024816  HIT:    1024774  MISS:         42
BTB BRANCH_INDIRECT	ACCESS:          0  HIT:          0  MISS:          0
BTB BRANCH_CONDITIONAL	ACCESS:    2437139  HIT:    2437052  MISS:         87
BTB BRANCH_DIRECT_CALL	ACCESS:        795  HIT:        784  MISS:         11
BTB BRANCH_INDIRECT_CALL	ACCESS:          0  HIT:          0  MISS:          0
BTB BRANCH_RETURN	ACCESS:        795  HIT:        779  MISS:         16
BTB BRANCH_OTHER ACCESS:          0  HIT:          0  MISS:          0

L2C TOTAL     ACCESS:    2962612  HIT:     729793  MISS:    2232819  HIT %:    24.6334  MISS %:    75.3666   MPKI: 89.3127
L2C LOAD      ACCESS:     912807  HIT:     100859  MISS:     811948  HIT %:    11.0493  MISS %:    88.9507   MPKI: 32.4779
L2C DATA LOAD MPKI: 32.4779
L2C INSTRUCTION LOAD MPKI: 0
L2C RFO       ACCESS:     148043  HIT:     102484  MISS:      45559  HIT %:    69.2258  MISS %:    30.7742   MPKI: 1.82236
L2C PREFETCH  ACCESS:    1514071  HIT:     145379  MISS:    1368692  HIT %:    9.60186  MISS %:    90.3981   MPKI: 54.7477
AGUS PREFETCH L1 MISS: 0
L2C DATA PREFETCH MPKI: 54.7477
L2C INSTRUCTION PREFETCH MPKI: 0
L2C WRITEBACK ACCESS:     381414  HIT:     378588  MISS:       2826  HIT %:    99.2591  MISS %:   0.740927   MPKI: 0.11304
L2C LOAD TRANSLATION ACCESS:       6277  HIT:       2483  MISS:       3794  HIT %:    39.5571  MISS %:    60.4429   MPKI: 0.15176
L2C PREFETCH  REQUESTED:          0  ISSUED:          0  USEFUL:      18709  USELESS:    1348285
L2C USEFUL LOAD PREFETCHES:      18709 PREFETCH ISSUED TO LOWER LEVEL:    1368695  ACCURACY: 1.36692
L2C TIMELY PREFETCHES:      18709 LATE PREFETCHES: 0 DROPPED PREFETCHES: 0
L2C PREFETCHES SAME FILL-ORIGIN LEVEL: 0 DIFFERENT FILL-ORIGIN LEVEL: 0
L2C AVERAGE MISS LATENCY: 123.617 cycles
L2C RQ	ACCESS:    1067149	FORWARD:          0	MERGED:          0	TO_CACHE:    1067127
L2C WQ	ACCESS:     381414	FORWARD:         31	MERGED:          0	TO_CACHE:     381414
L2C PQ	ACCESS:    1514082	FORWARD:          0	MERGED:          0	TO_CACHE:    1514073

L2C Instructions Evicting Data 0
L2C Translations Evicting Data 3792
L2C Data Evicting Data 2222415
L2C Instructions Evicting Instructions 0
L2C Translations Evicting Instructions 0
L2C Data Evicting Instructions 0
L2C Instructions Evicting Translations 0
L2C Translations Evicting Translations 2
L2C Data Evicting Translations 3784
L2C Dense regions hint from L2: 0
PSCL5 TOTAL     ACCESS:       5497  HIT:       5497  MISS:          0  HIT %:        100  MISS %:          0   MPKI: 0
PSCL5 LOAD TRANSLATION ACCESS:       5497  HIT:       5497  MISS:          0  HIT %:        100  MISS %:          0   MPKI: 0
PSCL5 PREFETCH  REQUESTED:          0  ISSUED:          0  USEFUL:          0  USELESS:          0
PSCL5 USEFUL LOAD PREFETCHES:          0 PREFETCH ISSUED TO LOWER LEVEL:          0  ACCURACY: -nan
PSCL5 TIMELY PREFETCHES:          0 LATE PREFETCHES: 0 DROPPED PREFETCHES: 0
PSCL5 PREFETCHES SAME FILL-ORIGIN LEVEL: 0 DIFFERENT FILL-ORIGIN LEVEL: 0

PSCL4 TOTAL     ACCESS:       5497  HIT:       5497  MISS:          0  HIT %:        100  MISS %:          0   MPKI: 0
PSCL4 LOAD TRANSLATION ACCESS:       5497  HIT:       5497  MISS:          0  HIT %:        100  MISS %:          0   MPKI: 0
PSCL4 PREFETCH  REQUESTED:          0  ISSUED:          0  USEFUL:          0  USELESS:          0
PSCL4 USEFUL LOAD PREFETCHES:          0 PREFETCH ISSUED TO LOWER LEVEL:          0  ACCURACY: -nan
PSCL4 TIMELY PREFETCHES:          0 LATE PREFETCHES: 0 DROPPED PREFETCHES: 0
PSCL4 PREFETCHES SAME FILL-ORIGIN LEVEL: 0 DIFFERENT FILL-ORIGIN LEVEL: 0

PSCL3 TOTAL     ACCESS:       5497  HIT:       5497  MISS:          0  HIT %:        100  MISS %:          0   MPKI: 0
PSCL3 LOAD TRANSLATION ACCESS:       5497  HIT:       5497  MISS:          0  HIT %:        100  MISS %:          0   MPKI: 0
PSCL3 PREFETCH  REQUESTED:          0  ISSUED:          0  USEFUL:          0  USELESS:          0
PSCL3 USEFUL LOAD PREFETCHES:          0 PREFETCH ISSUED TO LOWER LEVEL:          0  ACCURACY: -nan
PSCL3 TIMELY PREFETCHES:          0 LATE PREFETCHES: 0 DROPPED PREFETCHES: 0
PSCL3 PREFETCHES SAME FILL-ORIGIN LEVEL: 0 DIFFERENT FILL-ORIGIN LEVEL: 0

PSCL2 TOTAL     ACCESS:       5497  HIT:       4716  MISS:        781  HIT %:    85.7923  MISS %:    14.2077   MPKI: 0.03124
PSCL2 LOAD TRANSLATION ACCESS:       5497  HIT:       4716  MISS:        781  HIT %:    85.7923  MISS %:    14.2077   MPKI: 0.03124
PSCL2 PREFETCH  REQUESTED:          0  ISSUED:          0  USEFUL:          0  USELESS:          0
PSCL2 USEFUL LOAD PREFETCHES:          0 PREFETCH ISSUED TO LOWER LEVEL:          0  ACCURACY: -nan
PSCL2 TIMELY PREFETCHES:          0 LATE PREFETCHES: 0 DROPPED PREFETCHES: 0
PSCL2 PREFETCHES SAME FILL-ORIGIN LEVEL: 0 DIFFERENT FILL-ORIGIN LEVEL: 0

LLC TOTAL     ACCESS:    2471265  HIT:    1040118  MISS:    1431147  HIT %:    42.0885  MISS %:    57.9115   MPKI: 57.2459
LLC LOAD      ACCESS:     811948  HIT:     369120  MISS:     442828  HIT %:     45.461  MISS %:     54.539   MPKI: 17.7131
LLC RFO       ACCESS:      45557  HIT:      17753  MISS:      27804  HIT %:    38.9688  MISS %:    61.0312   MPKI: 1.11216
LLC PREFETCH  ACCESS:    1368692  HIT:     414626  MISS:     954066  HIT %:    30.2936  MISS %:    69.7064   MPKI: 38.1626
AGUS PREFETCH L1 MISS: 0
LLC WRITEBACK ACCESS:     241274  HIT:     238161  MISS:       3113  HIT %:    98.7098  MISS %:    1.29023   MPKI: 0.12452
LLC LOAD TRANSLATION ACCESS:       3794  HIT:        458  MISS:       3336  HIT %:    12.0717  MISS %:    87.9283   MPKI: 0.13344
LLC PREFETCH  REQUESTED:          0  ISSUED:          0  USEFUL:      95670  USELESS:     852072
LLC USEFUL LOAD PREFETCHES:      95670 PREFETCH ISSUED TO LOWER LEVEL:     954069  ACCURACY: 10.0276
LLC TIMELY PREFETCHES:      95670 LATE PREFETCHES: 0 DROPPED PREFETCHES: 0
LLC PREFETCHES SAME FILL-ORIGIN LEVEL: 0 DIFFERENT FILL-ORIGIN LEVEL: 0
LLC AVERAGE MISS LATENCY: 145.961 cycles
LLC RQ	ACCESS:     861301	FORWARD:          0	MERGED:          0	TO_CACHE:     861299
LLC WQ	ACCESS:     241274	FORWARD:          2	MERGED:          0	TO_CACHE:     241274
LLC PQ	ACCESS:    1368695	FORWARD:          0	MERGED:          0	TO_CACHE:    1368695

LLC Dense regions hint to LLC: 0

RAW hits: 3827
Loads Generated: 9042726
Loads sent to L1D: 9038897
Stores Generated: 657644
Stores sent to L1D: 657644
Major fault: 0 Minor fault: 7675
Allocated PAGES: 7675
CPU 0 L1D nextline prefetcher final stats
 Action = 30 : 530594
 Action = 23 : 616986
 Action = 16 : 623866
 Action = 11 : 763500
 Action = 10 : 751658
 Action = 22 : 653303
 Action = 5 : 803577
 Action = 4 : 791921
 Action = 32 : 455307
 Action = -3 : 823136
 Action = 12 : 682547
 Action = -6 : 772950
 Action = 3 : 892083
 Action = 1 : 885301
 Action = -1 : 947545
 Action = 0 : 13799

DRAM Statistics
 CHANNEL 0
 RQ ROW_BUFFER_HIT:     779049  ROW_BUFFER_MISS:     648955
 DBUS_CONGESTED:       2253
 WQ ROW_BUFFER_HIT:      49696  ROW_BUFFER_MISS:     168702  FULL:          0

 AVG_CONGESTED_CYCLE: 4
 All warmup complete: 2
Channel 0 Bank busy for read cycles: 0
Channel 0 Bank busy for write cycles: 0
Channel 0
Rank 0
0banks busy for read cycles: 10977404
0banks busy for write cycles: 55452
1banks busy for read cycles: 19088213
1banks busy for write cycles: 7851354
2banks busy for read cycles: 12628503
2banks busy for write cycles: 5184204
3banks busy for read cycles: 8871429
3banks busy for write cycles: 3310858
4banks busy for read cycles: 5899649
4banks busy for write cycles: 2025711
5banks busy for read cycles: 3839893
5banks busy for write cycles: 1226641
6banks busy for read cycles: 2185364
6banks busy for write cycles: 703723
7banks busy for read cycles: 950320
7banks busy for write cycles: 389149
8banks busy for read cycles: 355073
8banks busy for write cycles: 259229

CPU 0 Branch Prediction Accuracy: 93.8642% MPKI: 9.03912 Average ROB Occupancy at Mispredict: 70.4115
Branch types
NOT_BRANCH: 21316774 85.2671%
BRANCH_DIRECT_JUMP: 1024816 4.09926%
BRANCH_INDIRECT: 0 0%
BRANCH_CONDITIONAL: 2656565 10.6263%
BRANCH_DIRECT_CALL: 795 0.00318%
BRANCH_INDIRECT_CALL: 0 0%
BRANCH_RETURN: 795 0.00318%
BRANCH_OTHER: 0 0%

DRAM PAGES: 1048576
Allocated PAGES: 7675
