
*** ChampSim Multicore Out-of-Order Simulator ***

Warmup Instructions: 25000000
Simulation Instructions: 25000000
Number of CPUs: 1
LLC sets: 2048
LLC ways: 16
Off-chip DRAM Size: 4096 MB Channels: 1 Width: 64-bit Data Rate: 6400 MT/s
CPU 0 runs ../traces/sssp-3.trace.gz
.gz
CPU 0 Bimodal branch predictor
BTB has LRU replacement policy
ITLB has LRU replacement policy
DTLB has LRU replacement policy
STLB has LRU replacement policy
L1I has LRU replacement policy
L1D has LRU replacement policy
L2C has LRU replacement policy
LLC has LRU replacement policy
Heartbeat CPU 0 instructions: 10000002 cycles: 3093478 heartbeat IPC: 3.23261 cumulative IPC: 3.23261 (Simulation time: 0 hr 0 min 14 sec) 
Heartbeat CPU 0 instructions: 20000001 cycles: 6157890 heartbeat IPC: 3.26327 cumulative IPC: 3.24787 (Simulation time: 0 hr 0 min 28 sec) 

Warmup complete CPU 0 instructions: 25000001 cycles: 7700933 (Simulation time: 0 hr 0 min 34 sec) 

Heartbeat CPU 0 instructions: 30000002 cycles: 28912350 heartbeat IPC: 0.439474 cumulative IPC: 0.235722 (Simulation time: 0 hr 0 min 45 sec) 
Heartbeat CPU 0 instructions: 40000001 cycles: 71048924 heartbeat IPC: 0.237323 cumulative IPC: 0.236787 (Simulation time: 0 hr 1 min 6 sec) 
Heartbeat CPU 0 instructions: 50000002 cycles: 111615482 heartbeat IPC: 0.246508 cumulative IPC: 0.240582 (Simulation time: 0 hr 1 min 28 sec) 
Finished CPU 0 instructions: 25000001 cycles: 103914549 cumulative IPC: 0.240582 (Simulation time: 0 hr 1 min 28 sec) 

ChampSim completed all CPUs

Region of Interest Statistics

CPU 0 cumulative IPC: 0.240582 instructions: 25000001 cycles: 103914549
ITLB TOTAL     ACCESS:    3128816  HIT:    3128816  MISS:          0  HIT %:        100  MISS %:          0   MPKI: 0
ITLB LOAD TRANSLATION ACCESS:    3128816  HIT:    3128816  MISS:          0  HIT %:        100  MISS %:          0   MPKI: 0
ITLB PREFETCH  REQUESTED:          0  ISSUED:          0  USEFUL:          0  USELESS:          0
ITLB USEFUL LOAD PREFETCHES:          0 PREFETCH ISSUED TO LOWER LEVEL:          0  ACCURACY: -nan
ITLB TIMELY PREFETCHES:          0 LATE PREFETCHES: 0 DROPPED PREFETCHES: 0
ITLB PREFETCHES SAME FILL-ORIGIN LEVEL: 0 DIFFERENT FILL-ORIGIN LEVEL: 0
ITLB AVERAGE MISS LATENCY: -nan cycles
ITLB RQ	ACCESS:    3323665	FORWARD:          0	MERGED:     194850	TO_CACHE:    3128815

DTLB TOTAL     ACCESS:    6324024  HIT:    5886419  MISS:     437605  HIT %:    93.0803  MISS %:    6.91972   MPKI: 17.5042
DTLB LOAD TRANSLATION ACCESS:    6324024  HIT:    5886419  MISS:     437605  HIT %:    93.0803  MISS %:    6.91972   MPKI: 17.5042
DTLB PREFETCH  REQUESTED:          0  ISSUED:          0  USEFUL:          0  USELESS:          0
DTLB USEFUL LOAD PREFETCHES:          0 PREFETCH ISSUED TO LOWER LEVEL:          0  ACCURACY: -nan
DTLB TIMELY PREFETCHES:          0 LATE PREFETCHES: 0 DROPPED PREFETCHES: 0
DTLB PREFETCHES SAME FILL-ORIGIN LEVEL: 0 DIFFERENT FILL-ORIGIN LEVEL: 0
DTLB AVERAGE MISS LATENCY: 11.4499 cycles
DTLB RQ	ACCESS:    7284810	FORWARD:          0	MERGED:     951316	TO_CACHE:    6333494

STLB TOTAL     ACCESS:     437605  HIT:     432175  MISS:       5430  HIT %:    98.7592  MISS %:    1.24085   MPKI: 0.2172
STLB LOAD TRANSLATION ACCESS:     437605  HIT:     432175  MISS:       5430  HIT %:    98.7592  MISS %:    1.24085   MPKI: 0.2172
STLB PREFETCH  REQUESTED:          0  ISSUED:          0  USEFUL:          0  USELESS:          0
STLB USEFUL LOAD PREFETCHES:          0 PREFETCH ISSUED TO LOWER LEVEL:          0  ACCURACY: -nan
STLB TIMELY PREFETCHES:          0 LATE PREFETCHES: 0 DROPPED PREFETCHES: 0
STLB PREFETCHES SAME FILL-ORIGIN LEVEL: 0 DIFFERENT FILL-ORIGIN LEVEL: 0
STLB AVERAGE MISS LATENCY: 182.021 cycles
STLB RQ	ACCESS:     437605	FORWARD:          0	MERGED:          0	TO_CACHE:     437605

STLB Hit, L1D data hit: 0
STLB Hit, L2C data hit: 0
STLB Hit, LLC data hit: 0
STLB Hit, LLC data miss: 0
STLB STLB hints to L2: 0
L1D TOTAL     ACCESS:    6791165  HIT:    5551165  MISS:    1240000  HIT %:     81.741  MISS %:     18.259   MPKI: 49.6
L1D LOAD      ACCESS:    6159727  HIT:    5034024  MISS:    1125703  HIT %:    81.7248  MISS %:    18.2752   MPKI: 45.0281
L1D RFO       ACCESS:     631438  HIT:     517141  MISS:     114297  HIT %:    81.8989  MISS %:    18.1011   MPKI: 4.57188
L1D PREFETCH  REQUESTED:          0  ISSUED:          0  USEFUL:          0  USELESS:          0
L1D USEFUL LOAD PREFETCHES:          0 PREFETCH ISSUED TO LOWER LEVEL:          0  ACCURACY: -nan
L1D TIMELY PREFETCHES:          0 LATE PREFETCHES: 0 DROPPED PREFETCHES: 0
L1D PREFETCHES SAME FILL-ORIGIN LEVEL: 0 DIFFERENT FILL-ORIGIN LEVEL: 0
L1D AVERAGE MISS LATENCY: 108.935 cycles
L1D RQ	ACCESS:    9001182	FORWARD:          0	MERGED:    2400661	TO_CACHE:    6600337
L1D WQ	ACCESS:     684884	FORWARD:        184	MERGED:        411	TO_CACHE:     684473

L1D UNIQUE REGIONS ACCESSED: 0
L1D REGIONS CONFLICTS: 0
L1D Cross Page Prefetch Requests: 0
L1D Same Page Prefetch Requests: 0
L1D ROI Sum of L1D PQ occupancy: 0
L1D PREFETCHES PUSHED FROM L2C: 0
L1I TOTAL     ACCESS:    3323664  HIT:    3323664  MISS:          0  HIT %:        100  MISS %:          0   MPKI: 0
L1I LOAD      ACCESS:    3323664  HIT:    3323664  MISS:          0  HIT %:        100  MISS %:          0   MPKI: 0
L1I PREFETCH  REQUESTED:          0  ISSUED:          0  USEFUL:          0  USELESS:          0
L1I USEFUL LOAD PREFETCHES:          0 PREFETCH ISSUED TO LOWER LEVEL:          0  ACCURACY: -nan
L1I TIMELY PREFETCHES:          0 LATE PREFETCHES: 0 DROPPED PREFETCHES: 0
L1I PREFETCHES SAME FILL-ORIGIN LEVEL: 0 DIFFERENT FILL-ORIGIN LEVEL: 0
L1I AVERAGE MISS LATENCY: -nan cycles
L1I RQ	ACCESS:    4659585	FORWARD:          0	MERGED:    1335920	TO_CACHE:    3323665

BTB TOTAL     ACCESS:    3469184  HIT:    3469066  MISS:        118  HIT %:    99.9966  MISS %: 0.00340138   MPKI: 0.00472
BTB BRANCH_DIRECT_JUMP	ACCESS:    1016016  HIT:    1015983  MISS:         33
BTB BRANCH_INDIRECT	ACCESS:          0  HIT:          0  MISS:          0
BTB BRANCH_CONDITIONAL	ACCESS:    2451436  HIT:    2451365  MISS:         71
BTB BRANCH_DIRECT_CALL	ACCESS:        866  HIT:        861  MISS:          5
BTB BRANCH_INDIRECT_CALL	ACCESS:          0  HIT:          0  MISS:          0
BTB BRANCH_RETURN	ACCESS:        866  HIT:        857  MISS:          9
BTB BRANCH_OTHER ACCESS:          0  HIT:          0  MISS:          0

L2C TOTAL     ACCESS:    1593960  HIT:     627908  MISS:     966052  HIT %:     39.393  MISS %:     60.607   MPKI: 38.6421
L2C LOAD      ACCESS:    1125702  HIT:     198667  MISS:     927035  HIT %:    17.6483  MISS %:    82.3517   MPKI: 37.0814
L2C DATA LOAD MPKI: 37.0814
L2C INSTRUCTION LOAD MPKI: 0
L2C RFO       ACCESS:     114297  HIT:      79494  MISS:      34803  HIT %:    69.5504  MISS %:    30.4496   MPKI: 1.39212
L2C WRITEBACK ACCESS:     347865  HIT:     347197  MISS:        668  HIT %:     99.808  MISS %:   0.192029   MPKI: 0.02672
L2C LOAD TRANSLATION ACCESS:       6096  HIT:       2550  MISS:       3546  HIT %:    41.8307  MISS %:    58.1693   MPKI: 0.14184
L2C PREFETCH  REQUESTED:          0  ISSUED:          0  USEFUL:          0  USELESS:          0
L2C USEFUL LOAD PREFETCHES:          0 PREFETCH ISSUED TO LOWER LEVEL:          0  ACCURACY: -nan
L2C TIMELY PREFETCHES:          0 LATE PREFETCHES: 0 DROPPED PREFETCHES: 0
L2C PREFETCHES SAME FILL-ORIGIN LEVEL: 0 DIFFERENT FILL-ORIGIN LEVEL: 0
L2C AVERAGE MISS LATENCY: 120.854 cycles
L2C RQ	ACCESS:    1246095	FORWARD:          0	MERGED:          0	TO_CACHE:    1246095
L2C WQ	ACCESS:     347865	FORWARD:          0	MERGED:          0	TO_CACHE:     347865

L2C Instructions Evicting Data 0
L2C Translations Evicting Data 3533
L2C Data Evicting Data 958281
L2C Instructions Evicting Instructions 0
L2C Translations Evicting Instructions 0
L2C Data Evicting Instructions 0
L2C Instructions Evicting Translations 0
L2C Translations Evicting Translations 13
L2C Data Evicting Translations 3557
L2C Dense regions hint from L2: 0
PSCL5 TOTAL     ACCESS:       5430  HIT:       5430  MISS:          0  HIT %:        100  MISS %:          0   MPKI: 0
PSCL5 LOAD TRANSLATION ACCESS:       5430  HIT:       5430  MISS:          0  HIT %:        100  MISS %:          0   MPKI: 0
PSCL5 PREFETCH  REQUESTED:          0  ISSUED:          0  USEFUL:          0  USELESS:          0
PSCL5 USEFUL LOAD PREFETCHES:          0 PREFETCH ISSUED TO LOWER LEVEL:          0  ACCURACY: -nan
PSCL5 TIMELY PREFETCHES:          0 LATE PREFETCHES: 0 DROPPED PREFETCHES: 0
PSCL5 PREFETCHES SAME FILL-ORIGIN LEVEL: 0 DIFFERENT FILL-ORIGIN LEVEL: 0

PSCL4 TOTAL     ACCESS:       5430  HIT:       5430  MISS:          0  HIT %:        100  MISS %:          0   MPKI: 0
PSCL4 LOAD TRANSLATION ACCESS:       5430  HIT:       5430  MISS:          0  HIT %:        100  MISS %:          0   MPKI: 0
PSCL4 PREFETCH  REQUESTED:          0  ISSUED:          0  USEFUL:          0  USELESS:          0
PSCL4 USEFUL LOAD PREFETCHES:          0 PREFETCH ISSUED TO LOWER LEVEL:          0  ACCURACY: -nan
PSCL4 TIMELY PREFETCHES:          0 LATE PREFETCHES: 0 DROPPED PREFETCHES: 0
PSCL4 PREFETCHES SAME FILL-ORIGIN LEVEL: 0 DIFFERENT FILL-ORIGIN LEVEL: 0

PSCL3 TOTAL     ACCESS:       5430  HIT:       5430  MISS:          0  HIT %:        100  MISS %:          0   MPKI: 0
PSCL3 LOAD TRANSLATION ACCESS:       5430  HIT:       5430  MISS:          0  HIT %:        100  MISS %:          0   MPKI: 0
PSCL3 PREFETCH  REQUESTED:          0  ISSUED:          0  USEFUL:          0  USELESS:          0
PSCL3 USEFUL LOAD PREFETCHES:          0 PREFETCH ISSUED TO LOWER LEVEL:          0  ACCURACY: -nan
PSCL3 TIMELY PREFETCHES:          0 LATE PREFETCHES: 0 DROPPED PREFETCHES: 0
PSCL3 PREFETCHES SAME FILL-ORIGIN LEVEL: 0 DIFFERENT FILL-ORIGIN LEVEL: 0

PSCL2 TOTAL     ACCESS:       5430  HIT:       4764  MISS:        666  HIT %:    87.7348  MISS %:    12.2652   MPKI: 0.02664
PSCL2 LOAD TRANSLATION ACCESS:       5430  HIT:       4764  MISS:        666  HIT %:    87.7348  MISS %:    12.2652   MPKI: 0.02664
PSCL2 PREFETCH  REQUESTED:          0  ISSUED:          0  USEFUL:          0  USELESS:          0
PSCL2 USEFUL LOAD PREFETCHES:          0 PREFETCH ISSUED TO LOWER LEVEL:          0  ACCURACY: -nan
PSCL2 TIMELY PREFETCHES:          0 LATE PREFETCHES: 0 DROPPED PREFETCHES: 0
PSCL2 PREFETCHES SAME FILL-ORIGIN LEVEL: 0 DIFFERENT FILL-ORIGIN LEVEL: 0

LLC TOTAL     ACCESS:    1197959  HIT:     638494  MISS:     559465  HIT %:    53.2985  MISS %:    46.7015   MPKI: 22.3786
LLC LOAD      ACCESS:     927035  HIT:     396854  MISS:     530181  HIT %:     42.809  MISS %:     57.191   MPKI: 21.2072
LLC RFO       ACCESS:      34803  HIT:       9287  MISS:      25516  HIT %:    26.6845  MISS %:    73.3155   MPKI: 1.02064
LLC WRITEBACK ACCESS:     232575  HIT:     231435  MISS:       1140  HIT %:    99.5098  MISS %:   0.490164   MPKI: 0.0456
LLC LOAD TRANSLATION ACCESS:       3546  HIT:        918  MISS:       2628  HIT %:    25.8883  MISS %:    74.1117   MPKI: 0.10512
LLC PREFETCH  REQUESTED:          0  ISSUED:          0  USEFUL:          0  USELESS:          0
LLC USEFUL LOAD PREFETCHES:          0 PREFETCH ISSUED TO LOWER LEVEL:          0  ACCURACY: -nan
LLC TIMELY PREFETCHES:          0 LATE PREFETCHES: 0 DROPPED PREFETCHES: 0
LLC PREFETCHES SAME FILL-ORIGIN LEVEL: 0 DIFFERENT FILL-ORIGIN LEVEL: 0
LLC AVERAGE MISS LATENCY: 156.809 cycles
LLC RQ	ACCESS:     965384	FORWARD:          0	MERGED:          0	TO_CACHE:     965384
LLC WQ	ACCESS:     232575	FORWARD:          0	MERGED:          0	TO_CACHE:     232575

LLC Dense regions hint to LLC: 0

RAW hits: 3565
Loads Generated: 9004752
Loads sent to L1D: 9001182
Stores Generated: 684884
Stores sent to L1D: 684884
Major fault: 0 Minor fault: 7785
Allocated PAGES: 7785

DRAM Statistics
 CHANNEL 0
 RQ ROW_BUFFER_HIT:     136582  ROW_BUFFER_MISS:     421736
 DBUS_CONGESTED:        158
 WQ ROW_BUFFER_HIT:      41482  ROW_BUFFER_MISS:     159189  FULL:          0

 AVG_CONGESTED_CYCLE: 3
 All warmup complete: 2
Channel 0 Bank busy for read cycles: 0
Channel 0 Bank busy for write cycles: 0
Channel 0
Rank 0
0banks busy for read cycles: 28657802
0banks busy for write cycles: 105012
1banks busy for read cycles: 35815373
1banks busy for write cycles: 16474939
2banks busy for read cycles: 10218618
2banks busy for write cycles: 5941400
3banks busy for read cycles: 2602467
3banks busy for write cycles: 1913517
4banks busy for read cycles: 558524
4banks busy for write cycles: 569687
5banks busy for read cycles: 129702
5banks busy for write cycles: 160092
6banks busy for read cycles: 81985
6banks busy for write cycles: 57851
7banks busy for read cycles: 87355
7banks busy for write cycles: 46333
8banks busy for read cycles: 274866
8banks busy for write cycles: 219027

CPU 0 Branch Prediction Accuracy: 93.5859% MPKI: 9.44236 Average ROB Occupancy at Mispredict: 67.5787
Branch types
NOT_BRANCH: 21319376 85.2775%
BRANCH_DIRECT_JUMP: 1016016 4.06406%
BRANCH_INDIRECT: 0 0%
BRANCH_CONDITIONAL: 2662546 10.6502%
BRANCH_DIRECT_CALL: 866 0.003464%
BRANCH_INDIRECT_CALL: 0 0%
BRANCH_RETURN: 866 0.003464%
BRANCH_OTHER: 0 0%

DRAM PAGES: 1048576
Allocated PAGES: 7785
