
*** ChampSim Multicore Out-of-Order Simulator ***

Warmup Instructions: 25000000
Simulation Instructions: 25000000
Number of CPUs: 1
LLC sets: 2048
LLC ways: 16
Off-chip DRAM Size: 4096 MB Channels: 1 Width: 64-bit Data Rate: 6400 MT/s
CPU 0 runs ../traces/sssp-5.trace.gz
.gz
CPU 0 Bimodal branch predictor
BTB has LRU replacement policy
ITLB has LRU replacement policy
DTLB has LRU replacement policy
STLB has LRU replacement policy
L1I has LRU replacement policy
L1D has LRU replacement policy
L2C has LRU replacement policy
LLC has LRU replacement policy
Heartbeat CPU 0 instructions: 10000001 cycles: 3078076 heartbeat IPC: 3.24878 cumulative IPC: 3.24878 (Simulation time: 0 hr 0 min 13 sec) 
Heartbeat CPU 0 instructions: 20000000 cycles: 6134404 heartbeat IPC: 3.2719 cumulative IPC: 3.2603 (Simulation time: 0 hr 0 min 27 sec) 

Warmup complete CPU 0 instructions: 25000001 cycles: 7669989 (Simulation time: 0 hr 0 min 33 sec) 

Heartbeat CPU 0 instructions: 30000003 cycles: 29219380 heartbeat IPC: 0.433182 cumulative IPC: 0.232025 (Simulation time: 0 hr 0 min 44 sec) 
Heartbeat CPU 0 instructions: 40000000 cycles: 70079662 heartbeat IPC: 0.244736 cumulative IPC: 0.240347 (Simulation time: 0 hr 1 min 5 sec) 
Heartbeat CPU 0 instructions: 50000003 cycles: 109373390 heartbeat IPC: 0.254494 cumulative IPC: 0.245813 (Simulation time: 0 hr 1 min 28 sec) 
Finished CPU 0 instructions: 25000002 cycles: 101703401 cumulative IPC: 0.245813 (Simulation time: 0 hr 1 min 28 sec) 

ChampSim completed all CPUs

Region of Interest Statistics

CPU 0 cumulative IPC: 0.245813 instructions: 25000002 cycles: 101703401
ITLB TOTAL     ACCESS:    3113752  HIT:    3113752  MISS:          0  HIT %:        100  MISS %:          0   MPKI: 0
ITLB LOAD TRANSLATION ACCESS:    3113752  HIT:    3113752  MISS:          0  HIT %:        100  MISS %:          0   MPKI: 0
ITLB PREFETCH  REQUESTED:          0  ISSUED:          0  USEFUL:          0  USELESS:          0
ITLB USEFUL LOAD PREFETCHES:          0 PREFETCH ISSUED TO LOWER LEVEL:          0  ACCURACY: -nan
ITLB TIMELY PREFETCHES:          0 LATE PREFETCHES: 0 DROPPED PREFETCHES: 0
ITLB PREFETCHES SAME FILL-ORIGIN LEVEL: 0 DIFFERENT FILL-ORIGIN LEVEL: 0
ITLB AVERAGE MISS LATENCY: -nan cycles
ITLB RQ	ACCESS:    3299623	FORWARD:          0	MERGED:     185872	TO_CACHE:    3113751

DTLB TOTAL     ACCESS:    6244840  HIT:    5761061  MISS:     483779  HIT %:    92.2531  MISS %:    7.74686   MPKI: 19.3512
DTLB LOAD TRANSLATION ACCESS:    6244840  HIT:    5761061  MISS:     483779  HIT %:    92.2531  MISS %:    7.74686   MPKI: 19.3512
DTLB PREFETCH  REQUESTED:          0  ISSUED:          0  USEFUL:          0  USELESS:          0
DTLB USEFUL LOAD PREFETCHES:          0 PREFETCH ISSUED TO LOWER LEVEL:          0  ACCURACY: -nan
DTLB TIMELY PREFETCHES:          0 LATE PREFETCHES: 0 DROPPED PREFETCHES: 0
DTLB PREFETCHES SAME FILL-ORIGIN LEVEL: 0 DIFFERENT FILL-ORIGIN LEVEL: 0
DTLB AVERAGE MISS LATENCY: 11.4656 cycles
DTLB RQ	ACCESS:    6578769	FORWARD:          0	MERGED:     323863	TO_CACHE:    6254906

STLB TOTAL     ACCESS:     483779  HIT:     478046  MISS:       5733  HIT %:     98.815  MISS %:    1.18505   MPKI: 0.22932
STLB LOAD TRANSLATION ACCESS:     483779  HIT:     478046  MISS:       5733  HIT %:     98.815  MISS %:    1.18505   MPKI: 0.22932
STLB PREFETCH  REQUESTED:          0  ISSUED:          0  USEFUL:          0  USELESS:          0
STLB USEFUL LOAD PREFETCHES:          0 PREFETCH ISSUED TO LOWER LEVEL:          0  ACCURACY: -nan
STLB TIMELY PREFETCHES:          0 LATE PREFETCHES: 0 DROPPED PREFETCHES: 0
STLB PREFETCHES SAME FILL-ORIGIN LEVEL: 0 DIFFERENT FILL-ORIGIN LEVEL: 0
STLB AVERAGE MISS LATENCY: 192.541 cycles
STLB RQ	ACCESS:     483779	FORWARD:          0	MERGED:          0	TO_CACHE:     483779

STLB Hit, L1D data hit: 0
STLB Hit, L2C data hit: 0
STLB Hit, LLC data hit: 0
STLB Hit, LLC data miss: 0
STLB STLB hints to L2: 0
L1D TOTAL     ACCESS:    6044355  HIT:    4767560  MISS:    1276795  HIT %:    78.8762  MISS %:    21.1238   MPKI: 51.0718
L1D LOAD      ACCESS:    5449681  HIT:    4284478  MISS:    1165203  HIT %:    78.6189  MISS %:    21.3811   MPKI: 46.6081
L1D RFO       ACCESS:     594674  HIT:     483082  MISS:     111592  HIT %:    81.2348  MISS %:    18.7652   MPKI: 4.46368
L1D PREFETCH  REQUESTED:          0  ISSUED:          0  USEFUL:          0  USELESS:          0
L1D USEFUL LOAD PREFETCHES:          0 PREFETCH ISSUED TO LOWER LEVEL:          0  ACCURACY: -nan
L1D TIMELY PREFETCHES:          0 LATE PREFETCHES: 0 DROPPED PREFETCHES: 0
L1D PREFETCHES SAME FILL-ORIGIN LEVEL: 0 DIFFERENT FILL-ORIGIN LEVEL: 0
L1D AVERAGE MISS LATENCY: 104.889 cycles
L1D RQ	ACCESS:    9057137	FORWARD:          0	MERGED:    3122094	TO_CACHE:    5934807
L1D WQ	ACCESS:     644310	FORWARD:        236	MERGED:        348	TO_CACHE:     643962

L1D UNIQUE REGIONS ACCESSED: 0
L1D REGIONS CONFLICTS: 0
L1D Cross Page Prefetch Requests: 0
L1D Same Page Prefetch Requests: 0
L1D ROI Sum of L1D PQ occupancy: 0
L1D PREFETCHES PUSHED FROM L2C: 0
L1I TOTAL     ACCESS:    3299624  HIT:    3299623  MISS:          1  HIT %:        100  MISS %: 3.03065e-05   MPKI: 4e-05
L1I LOAD      ACCESS:    3299624  HIT:    3299623  MISS:          1  HIT %:        100  MISS %: 3.03065e-05   MPKI: 4e-05
L1I PREFETCH  REQUESTED:          0  ISSUED:          0  USEFUL:          0  USELESS:          0
L1I USEFUL LOAD PREFETCHES:          0 PREFETCH ISSUED TO LOWER LEVEL:          0  ACCURACY: -nan
L1I TIMELY PREFETCHES:          0 LATE PREFETCHES: 0 DROPPED PREFETCHES: 0
L1I PREFETCHES SAME FILL-ORIGIN LEVEL: 0 DIFFERENT FILL-ORIGIN LEVEL: 0
L1I AVERAGE MISS LATENCY: 214 cycles
L1I RQ	ACCESS:    4671637	FORWARD:          0	MERGED:    1372014	TO_CACHE:    3299623

BTB TOTAL     ACCESS:    3484153  HIT:    3483997  MISS:        156  HIT %:    99.9955  MISS %: 0.00447742   MPKI: 0.00624
BTB BRANCH_DIRECT_JUMP	ACCESS:    1029003  HIT:    1028959  MISS:         44
BTB BRANCH_INDIRECT	ACCESS:          0  HIT:          0  MISS:          0
BTB BRANCH_CONDITIONAL	ACCESS:    2453616  HIT:    2453531  MISS:         85
BTB BRANCH_DIRECT_CALL	ACCESS:        767  HIT:        756  MISS:         11
BTB BRANCH_INDIRECT_CALL	ACCESS:          0  HIT:          0  MISS:          0
BTB BRANCH_RETURN	ACCESS:        767  HIT:        751  MISS:         16
BTB BRANCH_OTHER ACCESS:          0  HIT:          0  MISS:          0

L2C TOTAL     ACCESS:    1621399  HIT:     641741  MISS:     979658  HIT %:    39.5795  MISS %:    60.4205   MPKI: 39.1863
L2C LOAD      ACCESS:    1165204  HIT:     224394  MISS:     940810  HIT %:    19.2579  MISS %:    80.7421   MPKI: 37.6324
L2C DATA LOAD MPKI: 37.6324
L2C INSTRUCTION LOAD MPKI: 4e-05
L2C RFO       ACCESS:     111591  HIT:      77329  MISS:      34262  HIT %:    69.2968  MISS %:    30.7032   MPKI: 1.37048
L2C WRITEBACK ACCESS:     337968  HIT:     337358  MISS:        610  HIT %:    99.8195  MISS %:    0.18049   MPKI: 0.0244
L2C LOAD TRANSLATION ACCESS:       6636  HIT:       2660  MISS:       3976  HIT %:    40.0844  MISS %:    59.9156   MPKI: 0.15904
L2C PREFETCH  REQUESTED:          0  ISSUED:          0  USEFUL:          0  USELESS:          0
L2C USEFUL LOAD PREFETCHES:          0 PREFETCH ISSUED TO LOWER LEVEL:          0  ACCURACY: -nan
L2C TIMELY PREFETCHES:          0 LATE PREFETCHES: 0 DROPPED PREFETCHES: 0
L2C PREFETCHES SAME FILL-ORIGIN LEVEL: 0 DIFFERENT FILL-ORIGIN LEVEL: 0
L2C AVERAGE MISS LATENCY: 117.501 cycles
L2C RQ	ACCESS:    1283433	FORWARD:          0	MERGED:          0	TO_CACHE:    1283432
L2C WQ	ACCESS:     337968	FORWARD:          1	MERGED:          0	TO_CACHE:     337968

L2C Instructions Evicting Data 1
L2C Translations Evicting Data 3959
L2C Data Evicting Data 971105
L2C Instructions Evicting Instructions 0
L2C Translations Evicting Instructions 0
L2C Data Evicting Instructions 1
L2C Instructions Evicting Translations 0
L2C Translations Evicting Translations 17
L2C Data Evicting Translations 3965
L2C Dense regions hint from L2: 0
PSCL5 TOTAL     ACCESS:       5733  HIT:       5733  MISS:          0  HIT %:        100  MISS %:          0   MPKI: 0
PSCL5 LOAD TRANSLATION ACCESS:       5733  HIT:       5733  MISS:          0  HIT %:        100  MISS %:          0   MPKI: 0
PSCL5 PREFETCH  REQUESTED:          0  ISSUED:          0  USEFUL:          0  USELESS:          0
PSCL5 USEFUL LOAD PREFETCHES:          0 PREFETCH ISSUED TO LOWER LEVEL:          0  ACCURACY: -nan
PSCL5 TIMELY PREFETCHES:          0 LATE PREFETCHES: 0 DROPPED PREFETCHES: 0
PSCL5 PREFETCHES SAME FILL-ORIGIN LEVEL: 0 DIFFERENT FILL-ORIGIN LEVEL: 0

PSCL4 TOTAL     ACCESS:       5733  HIT:       5733  MISS:          0  HIT %:        100  MISS %:          0   MPKI: 0
PSCL4 LOAD TRANSLATION ACCESS:       5733  HIT:       5733  MISS:          0  HIT %:        100  MISS %:          0   MPKI: 0
PSCL4 PREFETCH  REQUESTED:          0  ISSUED:          0  USEFUL:          0  USELESS:          0
PSCL4 USEFUL LOAD PREFETCHES:          0 PREFETCH ISSUED TO LOWER LEVEL:          0  ACCURACY: -nan
PSCL4 TIMELY PREFETCHES:          0 LATE PREFETCHES: 0 DROPPED PREFETCHES: 0
PSCL4 PREFETCHES SAME FILL-ORIGIN LEVEL: 0 DIFFERENT FILL-ORIGIN LEVEL: 0

PSCL3 TOTAL     ACCESS:       5733  HIT:       5733  MISS:          0  HIT %:        100  MISS %:          0   MPKI: 0
PSCL3 LOAD TRANSLATION ACCESS:       5733  HIT:       5733  MISS:          0  HIT %:        100  MISS %:          0   MPKI: 0
PSCL3 PREFETCH  REQUESTED:          0  ISSUED:          0  USEFUL:          0  USELESS:          0
PSCL3 USEFUL LOAD PREFETCHES:          0 PREFETCH ISSUED TO LOWER LEVEL:          0  ACCURACY: -nan
PSCL3 TIMELY PREFETCHES:          0 LATE PREFETCHES: 0 DROPPED PREFETCHES: 0
PSCL3 PREFETCHES SAME FILL-ORIGIN LEVEL: 0 DIFFERENT FILL-ORIGIN LEVEL: 0

PSCL2 TOTAL     ACCESS:       5733  HIT:       4830  MISS:        903  HIT %:    84.2491  MISS %:    15.7509   MPKI: 0.03612
PSCL2 LOAD TRANSLATION ACCESS:       5733  HIT:       4830  MISS:        903  HIT %:    84.2491  MISS %:    15.7509   MPKI: 0.03612
PSCL2 PREFETCH  REQUESTED:          0  ISSUED:          0  USEFUL:          0  USELESS:          0
PSCL2 USEFUL LOAD PREFETCHES:          0 PREFETCH ISSUED TO LOWER LEVEL:          0  ACCURACY: -nan
PSCL2 TIMELY PREFETCHES:          0 LATE PREFETCHES: 0 DROPPED PREFETCHES: 0
PSCL2 PREFETCHES SAME FILL-ORIGIN LEVEL: 0 DIFFERENT FILL-ORIGIN LEVEL: 0

LLC TOTAL     ACCESS:    1200883  HIT:     661085  MISS:     539798  HIT %:    55.0499  MISS %:    44.9501   MPKI: 21.5919
LLC LOAD      ACCESS:     940810  HIT:     429686  MISS:     511124  HIT %:    45.6719  MISS %:    54.3281   MPKI: 20.445
LLC RFO       ACCESS:      34262  HIT:       9627  MISS:      24635  HIT %:    28.0982  MISS %:    71.9018   MPKI: 0.9854
LLC WRITEBACK ACCESS:     221835  HIT:     220780  MISS:       1055  HIT %:    99.5244  MISS %:   0.475579   MPKI: 0.0422
LLC LOAD TRANSLATION ACCESS:       3976  HIT:        992  MISS:       2984  HIT %:    24.9497  MISS %:    75.0503   MPKI: 0.11936
LLC PREFETCH  REQUESTED:          0  ISSUED:          0  USEFUL:          0  USELESS:          0
LLC USEFUL LOAD PREFETCHES:          0 PREFETCH ISSUED TO LOWER LEVEL:          0  ACCURACY: -nan
LLC TIMELY PREFETCHES:          0 LATE PREFETCHES: 0 DROPPED PREFETCHES: 0
LLC PREFETCHES SAME FILL-ORIGIN LEVEL: 0 DIFFERENT FILL-ORIGIN LEVEL: 0
LLC AVERAGE MISS LATENCY: 158.731 cycles
LLC RQ	ACCESS:     979049	FORWARD:          0	MERGED:          0	TO_CACHE:     979049
LLC WQ	ACCESS:     221835	FORWARD:          0	MERGED:          0	TO_CACHE:     221835

LLC Dense regions hint to LLC: 0

RAW hits: 3956
Loads Generated: 9061094
Loads sent to L1D: 9057137
Stores Generated: 644306
Stores sent to L1D: 644310
Major fault: 0 Minor fault: 7893
Allocated PAGES: 7893

DRAM Statistics
 CHANNEL 0
 RQ ROW_BUFFER_HIT:     122661  ROW_BUFFER_MISS:     416080
 DBUS_CONGESTED:        147
 WQ ROW_BUFFER_HIT:      39070  ROW_BUFFER_MISS:     149992  FULL:          0

 AVG_CONGESTED_CYCLE: 4
 All warmup complete: 2
Channel 0 Bank busy for read cycles: 0
Channel 0 Bank busy for write cycles: 0
Channel 0
Rank 0
0banks busy for read cycles: 28148976
0banks busy for write cycles: 100574
1banks busy for read cycles: 35453324
1banks busy for write cycles: 15956932
2banks busy for read cycles: 10123844
2banks busy for write cycles: 5743011
3banks busy for read cycles: 2492043
3banks busy for write cycles: 1781306
4banks busy for read cycles: 485818
4banks busy for write cycles: 494322
5banks busy for read cycles: 102905
5banks busy for write cycles: 133382
6banks busy for read cycles: 70651
6banks busy for write cycles: 44276
7banks busy for read cycles: 81387
7banks busy for write cycles: 42181
8banks busy for read cycles: 257481
8banks busy for write cycles: 190989

CPU 0 Branch Prediction Accuracy: 93.9877% MPKI: 8.86064 Average ROB Occupancy at Mispredict: 72.8892
Branch types
NOT_BRANCH: 21315296 85.2612%
BRANCH_DIRECT_JUMP: 1029003 4.11601%
BRANCH_INDIRECT: 0 0%
BRANCH_CONDITIONAL: 2653839 10.6154%
BRANCH_DIRECT_CALL: 767 0.003068%
BRANCH_INDIRECT_CALL: 0 0%
BRANCH_RETURN: 767 0.003068%
BRANCH_OTHER: 0 0%

DRAM PAGES: 1048576
Allocated PAGES: 7893
