
*** ChampSim Multicore Out-of-Order Simulator ***

Warmup Instructions: 25000000
Simulation Instructions: 25000000
Number of CPUs: 1
LLC sets: 2048
LLC ways: 16
Off-chip DRAM Size: 4096 MB Channels: 1 Width: 64-bit Data Rate: 6400 MT/s
CPU 0 runs ../traces/sssp-14.trace.gz
.gz
CPU 0 Bimodal branch predictor
BTB has LRU replacement policy
ITLB has LRU replacement policy
DTLB has LRU replacement policy
STLB has LRU replacement policy
L1I has LRU replacement policy
CPU 0 L1D - Pythia Preftecher 
L1D has LRU replacement policy
L2C has LRU replacement policy
LLC has LRU replacement policy
Heartbeat CPU 0 instructions: 10000000 cycles: 3080593 heartbeat IPC: 3.24613 cumulative IPC: 3.24613 (Simulation time: 0 hr 0 min 59 sec) 
Heartbeat CPU 0 instructions: 20000003 cycles: 6128889 heartbeat IPC: 3.28052 cumulative IPC: 3.26323 (Simulation time: 0 hr 2 min 6 sec) 

Warmup complete CPU 0 instructions: 25000002 cycles: 7665067 (Simulation time: 0 hr 2 min 41 sec) 

Heartbeat CPU 0 instructions: 30000001 cycles: 25713276 heartbeat IPC: 0.510611 cumulative IPC: 0.277036 (Simulation time: 0 hr 3 min 22 sec) 
Heartbeat CPU 0 instructions: 40000003 cycles: 60025735 heartbeat IPC: 0.291439 cumulative IPC: 0.286475 (Simulation time: 0 hr 4 min 37 sec) 
Heartbeat CPU 0 instructions: 50000000 cycles: 92500519 heartbeat IPC: 0.307931 cumulative IPC: 0.294688 (Simulation time: 0 hr 5 min 55 sec) 
Finished CPU 0 instructions: 25000002 cycles: 84835453 cumulative IPC: 0.294688 (Simulation time: 0 hr 5 min 55 sec) 

ChampSim completed all CPUs

Region of Interest Statistics

CPU 0 cumulative IPC: 0.294688 instructions: 25000002 cycles: 84835453
ITLB TOTAL     ACCESS:    3102535  HIT:    3102535  MISS:          0  HIT %:        100  MISS %:          0   MPKI: 0
ITLB LOAD TRANSLATION ACCESS:    3102535  HIT:    3102535  MISS:          0  HIT %:        100  MISS %:          0   MPKI: 0
ITLB PREFETCH  REQUESTED:          0  ISSUED:          0  USEFUL:          0  USELESS:          0
ITLB USEFUL LOAD PREFETCHES:          0 PREFETCH ISSUED TO LOWER LEVEL:          0  ACCURACY: -nan
ITLB TIMELY PREFETCHES:          0 LATE PREFETCHES: 0 DROPPED PREFETCHES: 0
ITLB PREFETCHES SAME FILL-ORIGIN LEVEL: 0 DIFFERENT FILL-ORIGIN LEVEL: 0
ITLB AVERAGE MISS LATENCY: -nan cycles
ITLB RQ	ACCESS:    3286309	FORWARD:          0	MERGED:     183775	TO_CACHE:    3102534

DTLB TOTAL     ACCESS:    6324307  HIT:    5836560  MISS:     487747  HIT %:    92.2877  MISS %:    7.71226   MPKI: 19.5099
DTLB LOAD TRANSLATION ACCESS:    6324307  HIT:    5836560  MISS:     487747  HIT %:    92.2877  MISS %:    7.71226   MPKI: 19.5099
DTLB PREFETCH  REQUESTED:          0  ISSUED:          0  USEFUL:          0  USELESS:          0
DTLB USEFUL LOAD PREFETCHES:          0 PREFETCH ISSUED TO LOWER LEVEL:          0  ACCURACY: -nan
DTLB TIMELY PREFETCHES:          0 LATE PREFETCHES: 0 DROPPED PREFETCHES: 0
DTLB PREFETCHES SAME FILL-ORIGIN LEVEL: 0 DIFFERENT FILL-ORIGIN LEVEL: 0
DTLB AVERAGE MISS LATENCY: 11.6631 cycles
DTLB RQ	ACCESS:    6565889	FORWARD:          0	MERGED:     228532	TO_CACHE:    6337357

STLB TOTAL     ACCESS:    5206893  HIT:    5201077  MISS:       5816  HIT %:    99.8883  MISS %:   0.111698   MPKI: 0.23264
STLB LOAD TRANSLATION ACCESS:     487747  HIT:     481931  MISS:       5816  HIT %:    98.8076  MISS %:    1.19242   MPKI: 0.23264
STLB TRANSLATION FROM L1D PREFETCHER ACCESS:    4719146  HIT:    4719146  MISS:          0  HIT %:        100  MISS %:          0   MPKI: 0
STLB PREFETCH  REQUESTED:          0  ISSUED:          0  USEFUL:          0  USELESS:          0
STLB USEFUL LOAD PREFETCHES:          0 PREFETCH ISSUED TO LOWER LEVEL:          0  ACCURACY: -nan
STLB TIMELY PREFETCHES:          0 LATE PREFETCHES: 0 DROPPED PREFETCHES: 0
STLB PREFETCHES SAME FILL-ORIGIN LEVEL: 0 DIFFERENT FILL-ORIGIN LEVEL: 0
STLB AVERAGE MISS LATENCY: 212.09 cycles
STLB RQ	ACCESS:   14611378	FORWARD:          0	MERGED:    9404485	TO_CACHE:    5206893

STLB Hit, L1D data hit: 0
STLB Hit, L2C data hit: 0
STLB Hit, LLC data hit: 0
STLB Hit, LLC data miss: 0
STLB STLB hints to L2: 0
L1D TOTAL     ACCESS:   19542679  HIT:   16848218  MISS:    2694461  HIT %:    86.2124  MISS %:    13.7876   MPKI: 107.778
L1D LOAD      ACCESS:    5890939  HIT:    4904537  MISS:     986402  HIT %:    83.2556  MISS %:    16.7444   MPKI: 39.4561
L1D RFO       ACCESS:     590780  HIT:     444421  MISS:     146359  HIT %:    75.2261  MISS %:    24.7739   MPKI: 5.85436
L1D PREFETCH  ACCESS:   13060960  HIT:   11499260  MISS:    1561700  HIT %:     88.043  MISS %:     11.957   MPKI: 62.468
AGUS PREFETCH L1 MISS: 0
L1D PREFETCH  REQUESTED:   29640706  ISSUED:   29549593  USEFUL:     202623  USELESS:    1358902
L1D USEFUL LOAD PREFETCHES:     202623 PREFETCH ISSUED TO LOWER LEVEL:    1583661  ACCURACY: 12.7946
L1D TIMELY PREFETCHES:     202623 LATE PREFETCHES: 21953 DROPPED PREFETCHES: 0
L1D PREFETCHES SAME FILL-ORIGIN LEVEL: 1583661 DIFFERENT FILL-ORIGIN LEVEL: 0
L1D AVERAGE MISS LATENCY: 117.694 cycles
L1D RQ	ACCESS:    9066385	FORWARD:          0	MERGED:    3139923	TO_CACHE:    5926336
L1D WQ	ACCESS:     639920	FORWARD:        140	MERGED:        367	TO_CACHE:     639553
L1D PQ	ACCESS:   15425962	FORWARD:          0	MERGED:    1302317	TO_CACHE:   14123631

L1D UNIQUE REGIONS ACCESSED: 0
L1D REGIONS CONFLICTS: 0
L1D Cross Page Prefetch Requests: 0
L1D Same Page Prefetch Requests: 25651223
L1D ROI Sum of L1D PQ occupancy: 190530568
L1D PREFETCHES PUSHED FROM L2C: 0
L1I TOTAL     ACCESS:    3286310  HIT:    3286310  MISS:          0  HIT %:        100  MISS %:          0   MPKI: 0
L1I LOAD      ACCESS:    3286310  HIT:    3286310  MISS:          0  HIT %:        100  MISS %:          0   MPKI: 0
L1I PREFETCH  REQUESTED:          0  ISSUED:          0  USEFUL:          0  USELESS:          0
L1I USEFUL LOAD PREFETCHES:          0 PREFETCH ISSUED TO LOWER LEVEL:          0  ACCURACY: -nan
L1I TIMELY PREFETCHES:          0 LATE PREFETCHES: 0 DROPPED PREFETCHES: 0
L1I PREFETCHES SAME FILL-ORIGIN LEVEL: 0 DIFFERENT FILL-ORIGIN LEVEL: 0
L1I AVERAGE MISS LATENCY: -nan cycles
L1I RQ	ACCESS:    4671711	FORWARD:          0	MERGED:    1385402	TO_CACHE:    3286309

BTB TOTAL     ACCESS:    3484641  HIT:    3484518  MISS:        123  HIT %:    99.9965  MISS %: 0.00352978   MPKI: 0.00492
BTB BRANCH_DIRECT_JUMP	ACCESS:    1031131  HIT:    1031096  MISS:         35
BTB BRANCH_INDIRECT	ACCESS:          0  HIT:          0  MISS:          0
BTB BRANCH_CONDITIONAL	ACCESS:    2451944  HIT:    2451871  MISS:         73
BTB BRANCH_DIRECT_CALL	ACCESS:        783  HIT:        777  MISS:          6
BTB BRANCH_INDIRECT_CALL	ACCESS:          0  HIT:          0  MISS:          0
BTB BRANCH_RETURN	ACCESS:        783  HIT:        774  MISS:          9
BTB BRANCH_OTHER ACCESS:          0  HIT:          0  MISS:          0

L2C TOTAL     ACCESS:    3080556  HIT:     773903  MISS:    2306653  HIT %:    25.1222  MISS %:    74.8778   MPKI: 92.2661
L2C LOAD      ACCESS:     964447  HIT:     121077  MISS:     843370  HIT %:     12.554  MISS %:     87.446   MPKI: 33.7348
L2C DATA LOAD MPKI: 33.7348
L2C INSTRUCTION LOAD MPKI: 0
L2C RFO       ACCESS:     146335  HIT:     101314  MISS:      45021  HIT %:    69.2343  MISS %:    30.7657   MPKI: 1.80084
L2C PREFETCH  ACCESS:    1583641  HIT:     172450  MISS:    1411191  HIT %:    10.8895  MISS %:    89.1105   MPKI: 56.4476
AGUS PREFETCH L1 MISS: 0
L2C DATA PREFETCH MPKI: 56.4476
L2C INSTRUCTION PREFETCH MPKI: 0
L2C WRITEBACK ACCESS:     379484  HIT:     376632  MISS:       2852  HIT %:    99.2485  MISS %:   0.751547   MPKI: 0.11408
L2C LOAD TRANSLATION ACCESS:       6649  HIT:       2430  MISS:       4219  HIT %:    36.5468  MISS %:    63.4532   MPKI: 0.16876
L2C PREFETCH  REQUESTED:          0  ISSUED:          0  USEFUL:      22547  USELESS:    1386554
L2C USEFUL LOAD PREFETCHES:      22547 PREFETCH ISSUED TO LOWER LEVEL:    1411194  ACCURACY: 1.59773
L2C TIMELY PREFETCHES:      22547 LATE PREFETCHES: 0 DROPPED PREFETCHES: 0
L2C PREFETCHES SAME FILL-ORIGIN LEVEL: 0 DIFFERENT FILL-ORIGIN LEVEL: 0
L2C AVERAGE MISS LATENCY: 120.106 cycles
L2C RQ	ACCESS:    1117455	FORWARD:          0	MERGED:          0	TO_CACHE:    1117432
L2C WQ	ACCESS:     379484	FORWARD:         40	MERGED:          0	TO_CACHE:     379484
L2C PQ	ACCESS:    1583661	FORWARD:          0	MERGED:          0	TO_CACHE:    1583644

L2C Instructions Evicting Data 0
L2C Translations Evicting Data 4215
L2C Data Evicting Data 2295365
L2C Instructions Evicting Instructions 0
L2C Translations Evicting Instructions 0
L2C Data Evicting Instructions 0
L2C Instructions Evicting Translations 0
L2C Translations Evicting Translations 4
L2C Data Evicting Translations 4217
L2C Dense regions hint from L2: 0
PSCL5 TOTAL     ACCESS:       5816  HIT:       5816  MISS:          0  HIT %:        100  MISS %:          0   MPKI: 0
PSCL5 LOAD TRANSLATION ACCESS:       5816  HIT:       5816  MISS:          0  HIT %:        100  MISS %:          0   MPKI: 0
PSCL5 PREFETCH  REQUESTED:          0  ISSUED:          0  USEFUL:          0  USELESS:          0
PSCL5 USEFUL LOAD PREFETCHES:          0 PREFETCH ISSUED TO LOWER LEVEL:          0  ACCURACY: -nan
PSCL5 TIMELY PREFETCHES:          0 LATE PREFETCHES: 0 DROPPED PREFETCHES: 0
PSCL5 PREFETCHES SAME FILL-ORIGIN LEVEL: 0 DIFFERENT FILL-ORIGIN LEVEL: 0

PSCL4 TOTAL     ACCESS:       5816  HIT:       5816  MISS:          0  HIT %:        100  MISS %:          0   MPKI: 0
PSCL4 LOAD TRANSLATION ACCESS:       5816  HIT:       5816  MISS:          0  HIT %:        100  MISS %:          0   MPKI: 0
PSCL4 PREFETCH  REQUESTED:          0  ISSUED:          0  USEFUL:          0  USELESS:          0
PSCL4 USEFUL LOAD PREFETCHES:          0 PREFETCH ISSUED TO LOWER LEVEL:          0  ACCURACY: -nan
PSCL4 TIMELY PREFETCHES:          0 LATE PREFETCHES: 0 DROPPED PREFETCHES: 0
PSCL4 PREFETCHES SAME FILL-ORIGIN LEVEL: 0 DIFFERENT FILL-ORIGIN LEVEL: 0

PSCL3 TOTAL     ACCESS:       5816  HIT:       5816  MISS:          0  HIT %:        100  MISS %:          0   MPKI: 0
PSCL3 LOAD TRANSLATION ACCESS:       5816  HIT:       5816  MISS:          0  HIT %:        100  MISS %:          0   MPKI: 0
PSCL3 PREFETCH  REQUESTED:          0  ISSUED:          0  USEFUL:          0  USELESS:          0
PSCL3 USEFUL LOAD PREFETCHES:          0 PREFETCH ISSUED TO LOWER LEVEL:          0  ACCURACY: -nan
PSCL3 TIMELY PREFETCHES:          0 LATE PREFETCHES: 0 DROPPED PREFETCHES: 0
PSCL3 PREFETCHES SAME FILL-ORIGIN LEVEL: 0 DIFFERENT FILL-ORIGIN LEVEL: 0

PSCL2 TOTAL     ACCESS:       5816  HIT:       4980  MISS:        836  HIT %:    85.6259  MISS %:    14.3741   MPKI: 0.03344
PSCL2 LOAD TRANSLATION ACCESS:       5816  HIT:       4980  MISS:        836  HIT %:    85.6259  MISS %:    14.3741   MPKI: 0.03344
PSCL2 PREFETCH  REQUESTED:          0  ISSUED:          0  USEFUL:          0  USELESS:          0
PSCL2 USEFUL LOAD PREFETCHES:          0 PREFETCH ISSUED TO LOWER LEVEL:          0  ACCURACY: -nan
PSCL2 TIMELY PREFETCHES:          0 LATE PREFETCHES: 0 DROPPED PREFETCHES: 0
PSCL2 PREFETCHES SAME FILL-ORIGIN LEVEL: 0 DIFFERENT FILL-ORIGIN LEVEL: 0

LLC TOTAL     ACCESS:    2539794  HIT:    1124825  MISS:    1414969  HIT %:     44.288  MISS %:     55.712   MPKI: 56.5988
LLC LOAD      ACCESS:     843370  HIT:     412144  MISS:     431226  HIT %:    48.8687  MISS %:    51.1313   MPKI: 17.249
LLC RFO       ACCESS:      45021  HIT:      17975  MISS:      27046  HIT %:    39.9258  MISS %:    60.0742   MPKI: 1.08184
LLC PREFETCH  ACCESS:    1411191  HIT:     461097  MISS:     950094  HIT %:    32.6743  MISS %:    67.3257   MPKI: 38.0038
AGUS PREFETCH L1 MISS: 0
LLC WRITEBACK ACCESS:     235993  HIT:     232959  MISS:       3034  HIT %:    98.7144  MISS %:    1.28563   MPKI: 0.12136
LLC LOAD TRANSLATION ACCESS:       4219  HIT:        650  MISS:       3569  HIT %:    15.4065  MISS %:    84.5935   MPKI: 0.14276
LLC PREFETCH  REQUESTED:          0  ISSUED:          0  USEFUL:     102694  USELESS:     840595
LLC USEFUL LOAD PREFETCHES:     102694 PREFETCH ISSUED TO LOWER LEVEL:     950097  ACCURACY: 10.8088
LLC TIMELY PREFETCHES:     102694 LATE PREFETCHES: 0 DROPPED PREFETCHES: 0
LLC PREFETCHES SAME FILL-ORIGIN LEVEL: 0 DIFFERENT FILL-ORIGIN LEVEL: 0
LLC AVERAGE MISS LATENCY: 146.781 cycles
LLC RQ	ACCESS:     892611	FORWARD:          0	MERGED:          0	TO_CACHE:     892611
LLC WQ	ACCESS:     235993	FORWARD:          0	MERGED:          0	TO_CACHE:     235993
LLC PQ	ACCESS:    1411194	FORWARD:          0	MERGED:          0	TO_CACHE:    1411194

LLC Dense regions hint to LLC: 0

RAW hits: 4238
Loads Generated: 9070623
Loads sent to L1D: 9066385
Stores Generated: 639919
Stores sent to L1D: 639920
Major fault: 0 Minor fault: 7709
Allocated PAGES: 7709
CPU 0 L1D nextline prefetcher final stats
 Action = 30 : 505607
 Action = 23 : 594831
 Action = 16 : 685657
 Action = 11 : 714158
 Action = 10 : 717020
 Action = 22 : 627734
 Action = 5 : 819484
 Action = 4 : 869000
 Action = 32 : 509724
 Action = -3 : 836756
 Action = 12 : 712912
 Action = -6 : 780990
 Action = 3 : 840818
 Action = 1 : 931391
 Action = -1 : 922211
 Action = 0 : 12872

DRAM Statistics
 CHANNEL 0
 RQ ROW_BUFFER_HIT:     760918  ROW_BUFFER_MISS:     650984
 DBUS_CONGESTED:       2262
 WQ ROW_BUFFER_HIT:      48253  ROW_BUFFER_MISS:     163490  FULL:          0

 AVG_CONGESTED_CYCLE: 4
 All warmup complete: 2
Channel 0 Bank busy for read cycles: 0
Channel 0 Bank busy for write cycles: 0
Channel 0
Rank 0
0banks busy for read cycles: 10667749
0banks busy for write cycles: 54113
1banks busy for read cycles: 18880479
1banks busy for write cycles: 7707337
2banks busy for read cycles: 12616595
2banks busy for write cycles: 5108482
3banks busy for read cycles: 8928023
3banks busy for write cycles: 3264112
4banks busy for read cycles: 5977806
4banks busy for write cycles: 1996126
5banks busy for read cycles: 3869095
5banks busy for write cycles: 1186777
6banks busy for read cycles: 2115532
6banks busy for write cycles: 673603
7banks busy for read cycles: 896215
7banks busy for write cycles: 351147
8banks busy for read cycles: 327927
8banks busy for write cycles: 214336

CPU 0 Branch Prediction Accuracy: 94.0604% MPKI: 8.75416 Average ROB Occupancy at Mispredict: 73.211
Branch types
NOT_BRANCH: 21315003 85.26%
BRANCH_DIRECT_JUMP: 1031131 4.12452%
BRANCH_INDIRECT: 0 0%
BRANCH_CONDITIONAL: 2651938 10.6078%
BRANCH_DIRECT_CALL: 783 0.003132%
BRANCH_INDIRECT_CALL: 0 0%
BRANCH_RETURN: 783 0.003132%
BRANCH_OTHER: 0 0%

DRAM PAGES: 1048576
Allocated PAGES: 7709
