
*** ChampSim Multicore Out-of-Order Simulator ***

Warmup Instructions: 25000000
Simulation Instructions: 25000000
Number of CPUs: 1
LLC sets: 2048
LLC ways: 16
Off-chip DRAM Size: 4096 MB Channels: 1 Width: 64-bit Data Rate: 6400 MT/s
CPU 0 runs ../traces/sssp-5.trace.gz
.gz
CPU 0 Bimodal branch predictor
BTB has LRU replacement policy
ITLB has LRU replacement policy
DTLB has LRU replacement policy
STLB has LRU replacement policy
L1I has LRU replacement policy
CPU 0 L1D - Pythia Preftecher 
L1D has LRU replacement policy
L2C has LRU replacement policy
LLC has LRU replacement policy
Heartbeat CPU 0 instructions: 10000001 cycles: 3075751 heartbeat IPC: 3.25124 cumulative IPC: 3.25124 (Simulation time: 0 hr 0 min 57 sec) 
Heartbeat CPU 0 instructions: 20000000 cycles: 6131927 heartbeat IPC: 3.27206 cumulative IPC: 3.26162 (Simulation time: 0 hr 2 min 5 sec) 

Warmup complete CPU 0 instructions: 25000001 cycles: 7667799 (Simulation time: 0 hr 2 min 39 sec) 

Heartbeat CPU 0 instructions: 30000003 cycles: 25968695 heartbeat IPC: 0.504115 cumulative IPC: 0.273211 (Simulation time: 0 hr 3 min 21 sec) 
Heartbeat CPU 0 instructions: 40000000 cycles: 60446015 heartbeat IPC: 0.290046 cumulative IPC: 0.284208 (Simulation time: 0 hr 4 min 40 sec) 
Heartbeat CPU 0 instructions: 50000003 cycles: 93094920 heartbeat IPC: 0.306289 cumulative IPC: 0.292647 (Simulation time: 0 hr 6 min 1 sec) 
Finished CPU 0 instructions: 25000002 cycles: 85427121 cumulative IPC: 0.292647 (Simulation time: 0 hr 6 min 1 sec) 

ChampSim completed all CPUs

Region of Interest Statistics

CPU 0 cumulative IPC: 0.292647 instructions: 25000002 cycles: 85427121
ITLB TOTAL     ACCESS:    3108565  HIT:    3108565  MISS:          0  HIT %:        100  MISS %:          0   MPKI: 0
ITLB LOAD TRANSLATION ACCESS:    3108565  HIT:    3108565  MISS:          0  HIT %:        100  MISS %:          0   MPKI: 0
ITLB PREFETCH  REQUESTED:          0  ISSUED:          0  USEFUL:          0  USELESS:          0
ITLB USEFUL LOAD PREFETCHES:          0 PREFETCH ISSUED TO LOWER LEVEL:          0  ACCURACY: -nan
ITLB TIMELY PREFETCHES:          0 LATE PREFETCHES: 0 DROPPED PREFETCHES: 0
ITLB PREFETCHES SAME FILL-ORIGIN LEVEL: 0 DIFFERENT FILL-ORIGIN LEVEL: 0
ITLB AVERAGE MISS LATENCY: -nan cycles
ITLB RQ	ACCESS:    3294429	FORWARD:          0	MERGED:     185865	TO_CACHE:    3108564

DTLB TOTAL     ACCESS:    6341007  HIT:    5857232  MISS:     483775  HIT %:    92.3707  MISS %:    7.62931   MPKI: 19.351
DTLB LOAD TRANSLATION ACCESS:    6341007  HIT:    5857232  MISS:     483775  HIT %:    92.3707  MISS %:    7.62931   MPKI: 19.351
DTLB PREFETCH  REQUESTED:          0  ISSUED:          0  USEFUL:          0  USELESS:          0
DTLB USEFUL LOAD PREFETCHES:          0 PREFETCH ISSUED TO LOWER LEVEL:          0  ACCURACY: -nan
DTLB TIMELY PREFETCHES:          0 LATE PREFETCHES: 0 DROPPED PREFETCHES: 0
DTLB PREFETCHES SAME FILL-ORIGIN LEVEL: 0 DIFFERENT FILL-ORIGIN LEVEL: 0
DTLB AVERAGE MISS LATENCY: 11.7266 cycles
DTLB RQ	ACCESS:    6577688	FORWARD:          0	MERGED:     224538	TO_CACHE:    6353150

STLB TOTAL     ACCESS:    5211898  HIT:    5206074  MISS:       5824  HIT %:    99.8883  MISS %:   0.111744   MPKI: 0.23296
STLB LOAD TRANSLATION ACCESS:     483775  HIT:     477951  MISS:       5824  HIT %:    98.7961  MISS %:    1.20387   MPKI: 0.23296
STLB TRANSLATION FROM L1D PREFETCHER ACCESS:    4728123  HIT:    4728123  MISS:          0  HIT %:        100  MISS %:          0   MPKI: 0
STLB PREFETCH  REQUESTED:          0  ISSUED:          0  USEFUL:          0  USELESS:          0
STLB USEFUL LOAD PREFETCHES:          0 PREFETCH ISSUED TO LOWER LEVEL:          0  ACCURACY: -nan
STLB TIMELY PREFETCHES:          0 LATE PREFETCHES: 0 DROPPED PREFETCHES: 0
STLB PREFETCHES SAME FILL-ORIGIN LEVEL: 0 DIFFERENT FILL-ORIGIN LEVEL: 0
STLB AVERAGE MISS LATENCY: 215.7 cycles
STLB RQ	ACCESS:   14469122	FORWARD:          0	MERGED:    9257222	TO_CACHE:    5211900

STLB Hit, L1D data hit: 0
STLB Hit, L2C data hit: 0
STLB Hit, LLC data hit: 0
STLB Hit, LLC data miss: 0
STLB STLB hints to L2: 0
L1D TOTAL     ACCESS:   19430036  HIT:   16795666  MISS:    2634370  HIT %:    86.4418  MISS %:    13.5582   MPKI: 105.375
L1D LOAD      ACCESS:    5895842  HIT:    4931710  MISS:     964132  HIT %:    83.6473  MISS %:    16.3527   MPKI: 38.5653
L1D RFO       ACCESS:     596943  HIT:     449271  MISS:     147672  HIT %:     75.262  MISS %:     24.738   MPKI: 5.90688
L1D PREFETCH  ACCESS:   12937251  HIT:   11414685  MISS:    1522566  HIT %:    88.2311  MISS %:    11.7689   MPKI: 60.9026
AGUS PREFETCH L1 MISS: 0
L1D PREFETCH  REQUESTED:   29340570  ISSUED:   29260198  USEFUL:     209611  USELESS:    1312849
L1D USEFUL LOAD PREFETCHES:     209611 PREFETCH ISSUED TO LOWER LEVEL:    1545142  ACCURACY: 13.5658
L1D TIMELY PREFETCHES:     209611 LATE PREFETCHES: 22572 DROPPED PREFETCHES: 0
L1D PREFETCHES SAME FILL-ORIGIN LEVEL: 1545142 DIFFERENT FILL-ORIGIN LEVEL: 0
L1D AVERAGE MISS LATENCY: 120.206 cycles
L1D RQ	ACCESS:    9056996	FORWARD:          0	MERGED:    3123111	TO_CACHE:    5933724
L1D WQ	ACCESS:     644310	FORWARD:        163	MERGED:        346	TO_CACHE:     643964
L1D PQ	ACCESS:   15274851	FORWARD:          0	MERGED:    1289502	TO_CACHE:   13985347

L1D UNIQUE REGIONS ACCESSED: 0
L1D REGIONS CONFLICTS: 0
L1D Cross Page Prefetch Requests: 0
L1D Same Page Prefetch Requests: 25446452
L1D ROI Sum of L1D PQ occupancy: 188601716
L1D PREFETCHES PUSHED FROM L2C: 0
L1I TOTAL     ACCESS:    3294430  HIT:    3294429  MISS:          1  HIT %:        100  MISS %: 3.03543e-05   MPKI: 4e-05
L1I LOAD      ACCESS:    3294430  HIT:    3294429  MISS:          1  HIT %:        100  MISS %: 3.03543e-05   MPKI: 4e-05
L1I PREFETCH  REQUESTED:          0  ISSUED:          0  USEFUL:          0  USELESS:          0
L1I USEFUL LOAD PREFETCHES:          0 PREFETCH ISSUED TO LOWER LEVEL:          0  ACCURACY: -nan
L1I TIMELY PREFETCHES:          0 LATE PREFETCHES: 0 DROPPED PREFETCHES: 0
L1I PREFETCHES SAME FILL-ORIGIN LEVEL: 0 DIFFERENT FILL-ORIGIN LEVEL: 0
L1I AVERAGE MISS LATENCY: 214 cycles
L1I RQ	ACCESS:    4666978	FORWARD:          0	MERGED:    1372549	TO_CACHE:    3294429

BTB TOTAL     ACCESS:    3484153  HIT:    3483997  MISS:        156  HIT %:    99.9955  MISS %: 0.00447742   MPKI: 0.00624
BTB BRANCH_DIRECT_JUMP	ACCESS:    1029003  HIT:    1028959  MISS:         44
BTB BRANCH_INDIRECT	ACCESS:          0  HIT:          0  MISS:          0
BTB BRANCH_CONDITIONAL	ACCESS:    2453616  HIT:    2453531  MISS:         85
BTB BRANCH_DIRECT_CALL	ACCESS:        767  HIT:        756  MISS:         11
BTB BRANCH_INDIRECT_CALL	ACCESS:          0  HIT:          0  MISS:          0
BTB BRANCH_RETURN	ACCESS:        767  HIT:        751  MISS:         16
BTB BRANCH_OTHER ACCESS:          0  HIT:          0  MISS:          0

L2C TOTAL     ACCESS:    3019645  HIT:     746476  MISS:    2273169  HIT %:    24.7207  MISS %:    75.2793   MPKI: 90.9268
L2C LOAD      ACCESS:     941557  HIT:     116076  MISS:     825481  HIT %:    12.3281  MISS %:    87.6719   MPKI: 33.0192
L2C DATA LOAD MPKI: 33.0192
L2C INSTRUCTION LOAD MPKI: 4e-05
L2C RFO       ACCESS:     147651  HIT:     102006  MISS:      45645  HIT %:    69.0859  MISS %:    30.9141   MPKI: 1.8258
L2C PREFETCH  ACCESS:    1545132  HIT:     150207  MISS:    1394925  HIT %:    9.72131  MISS %:    90.2787   MPKI: 55.797
AGUS PREFETCH L1 MISS: 0
L2C DATA PREFETCH MPKI: 55.797
L2C INSTRUCTION PREFETCH MPKI: 0
L2C WRITEBACK ACCESS:     378593  HIT:     375738  MISS:       2855  HIT %:    99.2459  MISS %:   0.754108   MPKI: 0.1142
L2C LOAD TRANSLATION ACCESS:       6712  HIT:       2449  MISS:       4263  HIT %:    36.4869  MISS %:    63.5131   MPKI: 0.17052
L2C PREFETCH  REQUESTED:          0  ISSUED:          0  USEFUL:      21234  USELESS:    1371502
L2C USEFUL LOAD PREFETCHES:      21234 PREFETCH ISSUED TO LOWER LEVEL:    1394927  ACCURACY: 1.52223
L2C TIMELY PREFETCHES:      21234 LATE PREFETCHES: 0 DROPPED PREFETCHES: 0
L2C PREFETCHES SAME FILL-ORIGIN LEVEL: 0 DIFFERENT FILL-ORIGIN LEVEL: 0
L2C AVERAGE MISS LATENCY: 122.088 cycles
L2C RQ	ACCESS:    1095942	FORWARD:          0	MERGED:          0	TO_CACHE:    1095920
L2C WQ	ACCESS:     378593	FORWARD:         30	MERGED:          0	TO_CACHE:     378593
L2C PQ	ACCESS:    1545142	FORWARD:          0	MERGED:          0	TO_CACHE:    1545134

L2C Instructions Evicting Data 1
L2C Translations Evicting Data 4252
L2C Data Evicting Data 2261795
L2C Instructions Evicting Instructions 0
L2C Translations Evicting Instructions 0
L2C Data Evicting Instructions 1
L2C Instructions Evicting Translations 0
L2C Translations Evicting Translations 11
L2C Data Evicting Translations 4254
L2C Dense regions hint from L2: 0
PSCL5 TOTAL     ACCESS:       5824  HIT:       5824  MISS:          0  HIT %:        100  MISS %:          0   MPKI: 0
PSCL5 LOAD TRANSLATION ACCESS:       5824  HIT:       5824  MISS:          0  HIT %:        100  MISS %:          0   MPKI: 0
PSCL5 PREFETCH  REQUESTED:          0  ISSUED:          0  USEFUL:          0  USELESS:          0
PSCL5 USEFUL LOAD PREFETCHES:          0 PREFETCH ISSUED TO LOWER LEVEL:          0  ACCURACY: -nan
PSCL5 TIMELY PREFETCHES:          0 LATE PREFETCHES: 0 DROPPED PREFETCHES: 0
PSCL5 PREFETCHES SAME FILL-ORIGIN LEVEL: 0 DIFFERENT FILL-ORIGIN LEVEL: 0

PSCL4 TOTAL     ACCESS:       5824  HIT:       5824  MISS:          0  HIT %:        100  MISS %:          0   MPKI: 0
PSCL4 LOAD TRANSLATION ACCESS:       5824  HIT:       5824  MISS:          0  HIT %:        100  MISS %:          0   MPKI: 0
PSCL4 PREFETCH  REQUESTED:          0  ISSUED:          0  USEFUL:          0  USELESS:          0
PSCL4 USEFUL LOAD PREFETCHES:          0 PREFETCH ISSUED TO LOWER LEVEL:          0  ACCURACY: -nan
PSCL4 TIMELY PREFETCHES:          0 LATE PREFETCHES: 0 DROPPED PREFETCHES: 0
PSCL4 PREFETCHES SAME FILL-ORIGIN LEVEL: 0 DIFFERENT FILL-ORIGIN LEVEL: 0

PSCL3 TOTAL     ACCESS:       5824  HIT:       5824  MISS:          0  HIT %:        100  MISS %:          0   MPKI: 0
PSCL3 LOAD TRANSLATION ACCESS:       5824  HIT:       5824  MISS:          0  HIT %:        100  MISS %:          0   MPKI: 0
PSCL3 PREFETCH  REQUESTED:          0  ISSUED:          0  USEFUL:          0  USELESS:          0
PSCL3 USEFUL LOAD PREFETCHES:          0 PREFETCH ISSUED TO LOWER LEVEL:          0  ACCURACY: -nan
PSCL3 TIMELY PREFETCHES:          0 LATE PREFETCHES: 0 DROPPED PREFETCHES: 0
PSCL3 PREFETCHES SAME FILL-ORIGIN LEVEL: 0 DIFFERENT FILL-ORIGIN LEVEL: 0

PSCL2 TOTAL     ACCESS:       5824  HIT:       4936  MISS:        888  HIT %:    84.7527  MISS %:    15.2473   MPKI: 0.03552
PSCL2 LOAD TRANSLATION ACCESS:       5824  HIT:       4936  MISS:        888  HIT %:    84.7527  MISS %:    15.2473   MPKI: 0.03552
PSCL2 PREFETCH  REQUESTED:          0  ISSUED:          0  USEFUL:          0  USELESS:          0
PSCL2 USEFUL LOAD PREFETCHES:          0 PREFETCH ISSUED TO LOWER LEVEL:          0  ACCURACY: -nan
PSCL2 TIMELY PREFETCHES:          0 LATE PREFETCHES: 0 DROPPED PREFETCHES: 0
PSCL2 PREFETCHES SAME FILL-ORIGIN LEVEL: 0 DIFFERENT FILL-ORIGIN LEVEL: 0

LLC TOTAL     ACCESS:    2507570  HIT:    1085508  MISS:    1422062  HIT %:    43.2892  MISS %:    56.7108   MPKI: 56.8825
LLC LOAD      ACCESS:     825481  HIT:     391318  MISS:     434163  HIT %:    47.4048  MISS %:    52.5952   MPKI: 17.3665
LLC RFO       ACCESS:      45645  HIT:      18242  MISS:      27403  HIT %:    39.9649  MISS %:    60.0351   MPKI: 1.09612
LLC PREFETCH  ACCESS:    1394925  HIT:     441204  MISS:     953721  HIT %:    31.6292  MISS %:    68.3708   MPKI: 38.1488
AGUS PREFETCH L1 MISS: 0
LLC WRITEBACK ACCESS:     237256  HIT:     234105  MISS:       3151  HIT %:    98.6719  MISS %:     1.3281   MPKI: 0.12604
LLC LOAD TRANSLATION ACCESS:       4263  HIT:        639  MISS:       3624  HIT %:    14.9894  MISS %:    85.0106   MPKI: 0.14496
LLC PREFETCH  REQUESTED:          0  ISSUED:          0  USEFUL:      98843  USELESS:     848050
LLC USEFUL LOAD PREFETCHES:      98843 PREFETCH ISSUED TO LOWER LEVEL:     953723  ACCURACY: 10.3639
LLC TIMELY PREFETCHES:      98843 LATE PREFETCHES: 0 DROPPED PREFETCHES: 0
LLC PREFETCHES SAME FILL-ORIGIN LEVEL: 0 DIFFERENT FILL-ORIGIN LEVEL: 0
LLC AVERAGE MISS LATENCY: 147.097 cycles
LLC RQ	ACCESS:     875389	FORWARD:          0	MERGED:          0	TO_CACHE:     875389
LLC WQ	ACCESS:     237256	FORWARD:          0	MERGED:          0	TO_CACHE:     237256
LLC PQ	ACCESS:    1394927	FORWARD:          0	MERGED:          0	TO_CACHE:    1394927

LLC Dense regions hint to LLC: 0

RAW hits: 4098
Loads Generated: 9061095
Loads sent to L1D: 9056996
Stores Generated: 644306
Stores sent to L1D: 644310
Major fault: 0 Minor fault: 7893
Allocated PAGES: 7893
CPU 0 L1D nextline prefetcher final stats
 Action = 30 : 527395
 Action = 23 : 604562
 Action = 16 : 679955
 Action = 11 : 766261
 Action = 10 : 714378
 Action = 22 : 589537
 Action = 5 : 760762
 Action = 4 : 896724
 Action = 32 : 457794
 Action = -3 : 832430
 Action = 12 : 699935
 Action = -6 : 791467
 Action = 3 : 818995
 Action = 1 : 931690
 Action = -1 : 937171
 Action = 0 : 12762

DRAM Statistics
 CHANNEL 0
 RQ ROW_BUFFER_HIT:     765154  ROW_BUFFER_MISS:     653727
 DBUS_CONGESTED:       2046
 WQ ROW_BUFFER_HIT:      48684  ROW_BUFFER_MISS:     164113  FULL:          0

 AVG_CONGESTED_CYCLE: 4
 All warmup complete: 2
Channel 0 Bank busy for read cycles: 0
Channel 0 Bank busy for write cycles: 0
Channel 0
Rank 0
0banks busy for read cycles: 10862500
0banks busy for write cycles: 55194
1banks busy for read cycles: 19008037
1banks busy for write cycles: 7868297
2banks busy for read cycles: 12712148
2banks busy for write cycles: 5144918
3banks busy for read cycles: 8884014
3banks busy for write cycles: 3254792
4banks busy for read cycles: 5950443
4banks busy for write cycles: 1977383
5banks busy for read cycles: 3856427
5banks busy for write cycles: 1181681
6banks busy for read cycles: 2154777
6banks busy for write cycles: 660734
7banks busy for read cycles: 932505
7banks busy for write cycles: 358463
8banks busy for read cycles: 342636
8banks busy for write cycles: 222173

CPU 0 Branch Prediction Accuracy: 93.9877% MPKI: 8.86064 Average ROB Occupancy at Mispredict: 72.1487
Branch types
NOT_BRANCH: 21315296 85.2612%
BRANCH_DIRECT_JUMP: 1029003 4.11601%
BRANCH_INDIRECT: 0 0%
BRANCH_CONDITIONAL: 2653839 10.6154%
BRANCH_DIRECT_CALL: 767 0.003068%
BRANCH_INDIRECT_CALL: 0 0%
BRANCH_RETURN: 767 0.003068%
BRANCH_OTHER: 0 0%

DRAM PAGES: 1048576
Allocated PAGES: 7893
